MEPPEP|meppep|sdf|1|dock6
  -GOLD-   6242416 73D 1   1.00000     0.00000

 33 36  0  0  0  0  0  0  0  0  1 V2000
    8.4057   13.6056    3.2665 C   0  0  0  0  0  0  0  0  0  0  0  0
    7.8345   12.7005    2.2156 O   0  0  0  0  0  0  0  0  0  0  0  0
    6.7627   13.2034    1.2946 C   0  0  0  0  0  0  0  0  0  0  0  0
    6.9458   14.5040    0.5702 C   0  0  0  0  0  0  0  0  0  0  0  0
    5.8740   15.0070   -0.3508 C   0  0  0  0  0  0  0  0  0  0  0  0
    4.6190   14.2093   -0.5475 C   0  0  0  0  0  0  0  0  0  0  0  0
    4.4359   12.9086    0.1769 C   0  0  0  0  0  0  0  0  0  0  0  0
    3.1809   12.1108   -0.0197 C   0  0  0  0  0  0  0  0  0  0  0  0
    2.8053   11.3485   -1.2557 C   0  0  0  0  0  0  0  0  0  0  0  0
    1.4735   10.7018   -1.0148 C   0  0  0  0  0  0  0  0  0  0  0  0
    0.7213    9.8432   -1.9879 N   0  0  0  0  0  0  0  0  0  0  0  0
    0.6771    8.3560   -1.7976 C   0  0  0  0  0  0  0  0  0  0  0  0
   -0.5253    7.7156   -1.1699 C   0  0  0  0  0  0  0  0  0  0  0  0
    1.8354    7.5092   -2.2350 C   0  0  0  0  0  0  0  0  0  0  0  0
    2.9073    8.0960   -3.1047 C   0  0  0  0  0  0  0  0  0  0  0  0
    4.0656    7.2492   -3.5421 C   0  0  0  0  0  0  0  0  0  0  0  0
    4.1519    5.8155   -3.1097 C   0  0  0  0  0  0  0  0  0  0  0  0
    3.0800    5.2287   -2.2399 C   0  0  0  0  0  0  0  0  0  0  0  0
    1.9217    6.0755   -1.8025 C   0  0  0  0  0  0  0  0  0  0  0  0
    1.0259   11.0646    0.3702 C   0  0  0  0  0  0  0  0  0  0  0  0
   -0.2524   10.6324    1.0252 O   0  0  0  0  0  0  0  0  0  0  0  0
    2.0812   11.9354    0.9852 N   0  0  0  0  0  0  0  0  0  0  0  0
    2.0433   12.5268    2.3631 C   0  0  0  0  0  0  0  0  0  0  0  0
    3.2443   13.2441    2.9047 C   0  0  0  0  0  0  0  0  0  0  0  0
    3.2064   13.8356    4.2826 C   0  0  0  0  0  0  0  0  0  0  0  0
    1.9676   13.7098    5.1191 C   0  0  0  0  0  0  0  0  0  0  0  0
    1.9297   14.3013    6.4970 C   0  0  0  0  0  0  0  0  0  0  0  0
    1.8917   14.8928    7.8749 F   0  0  0  0  0  0  0  0  0  0  0  0
    0.9342   15.3223    6.0313 F   0  0  0  0  0  0  0  0  0  0  0  0
    2.9251   13.2803    6.9626 F   0  0  0  0  0  0  0  0  0  0  0  0
    0.7667   12.9926    4.5775 C   0  0  0  0  0  0  0  0  0  0  0  0
    0.8046   12.4011    3.1996 C   0  0  0  0  0  0  0  0  0  0  0  0
    5.5077   12.4057    1.0980 C   0  0  0  0  0  0  0  0  0  0  0  0
  1  2  1  0  0  0  0
  2  3  1  0  0  0  0
  3  4  2  0  0  0  0
  4  5  1  0  0  0  0
  5  6  2  0  0  0  0
  6  7  1  0  0  0  0
  8  7  1  0  0  0  0
  8  9  1  0  0  0  0
  9 10  1  0  0  0  0
 10 11  1  0  0  0  0
 11 12  1  0  0  0  0
 12 13  1  0  0  0  0
 12 14  1  0  0  0  0
 14 15  2  0  0  0  0
 15 16  1  0  0  0  0
 16 17  2  0  0  0  0
 17 18  1  0  0  0  0
 18 19  2  0  0  0  0
 10 20  1  0  0  0  0
 20 21  2  0  0  0  0
 20 22  1  0  0  0  0
 22 23  1  0  0  0  0
 23 24  2  0  0  0  0
 24 25  1  0  0  0  0
 25 26  2  0  0  0  0
 26 27  1  0  0  0  0
 27 28  1  0  0  0  0
 27 29  1  0  0  0  0
 27 30  1  0  0  0  0
 26 31  1  0  0  0  0
 31 32  2  0  0  0  0
  7 33  2  0  0  0  0
 33  3  1  0  0  0  0
 22  8  1  0  0  0  0
 32 23  1  0  0  0  0
 19 14  1  0  0  0  0
M  END
> <Gold.Version>
2024.1.0

> <Gold.Id.Protein>
6Q9L|6Q9L_protein|mol2

> <Gold.PLP.Fitness>
39.8706

> <Gold.PLP.PLP>
-39.8085

> <Gold.PLP.part.hbond>
-1.0000

> <Gold.PLP.part.metal>
0.0000

> <Gold.PLP.part.buried>
-3.9369

> <Gold.PLP.part.nonpolar>
-35.7889

> <Gold.PLP.part.repulsive>
0.0977

> <Gold.PLP.ligand.clash>
0.1502

> <Gold.PLP.ligand.torsion>
3.1751

> <Gold.PLP.Chemscore.Hbond>
0.9417

> <Gold.PLP.Chemscore.CHOScore>
0.0000

> <Gold.PLP.Chemscore.Metal>
0.0000

> <Gold.Chemscore.Hbonds>
donor molecule, donor type, donor heavy atom, donor atom, acceptor molecule, acceptor atom, score
      P1  H   642  3253       L1     2  0.94

> <Gold.PLP.Chemscore.Internal.Correction>
3.7375

> <Gold.Protein.RotatedTorsions>
[ 1932    1    2    3 ] final -160.40 input   60.00 | X-H torsion
[ 1726  314  313  311 ] final   14.32 input -140.00 | X-H torsion
[ 1619  347  346  344 ] final  177.70 input  180.00 | X-H torsion
[ 1600  369  368  365 ] final  149.17 input  -80.00 | X-H torsion
[ 2112  410  409  407 ] final  136.72 input   -0.00 | X-H torsion
[ 2483  607  606  603 ] final   37.67 input  170.00 | X-H torsion
[ 2515  623  622  621 ] final  -18.64 input   70.00 | X-H torsion

> <Gold.Protein.ActiveResidues>
 GLN18   LEU54   PHE55   TYR56   LEU57   GLY58   GLN59   TYR60   ILE61   MET62  
 THR63   TYR67   GLN72   HIS73   ILE74   VAL75   PHE91   SER92   VAL93   LYS94  
 GLU95   HIS96   ILE99  

> <Gold.Protein.RotatedAtoms>
   25.0822   15.8608    4.4876 H   0  0  0  0  0  0  0  0  0  0  0  0  # atno 1600 bound_to 369 
   25.1376    7.1010    3.7604 H   0  0  0  0  0  0  0  0  0  0  0  0  # atno 1619 bound_to 347 
   21.0153   18.4397   14.8617 H   0  0  0  0  0  0  0  0  0  0  0  0  # atno 1726 bound_to 314 
    0.1935   10.7339    7.0011 H   0  0  0  0  0  0  0  0  0  0  0  0  # atno 1932 bound_to 1   
    1.6023   10.8672    7.8644 H   0  0  0  0  0  0  0  0  0  0  0  0  # atno 1933 bound_to 1   
   18.9996   18.3527   -3.0295 H   0  0  0  0  0  0  0  0  0  0  0  0  # atno 2112 bound_to 410 
    9.0408    8.1309   -3.0226 H   0  0  0  0  0  0  0  0  0  0  0  0  # atno 2483 bound_to 607 
    4.3045   11.0570   -5.4158 H   0  0  0  0  0  0  0  0  0  0  0  0  # atno 2515 bound_to 623 
    5.3282   12.1761   -6.0845 H   0  0  0  0  0  0  0  0  0  0  0  0  # atno 2516 bound_to 623 
    4.1284   12.6641   -5.0504 H   0  0  0  0  0  0  0  0  0  0  0  0  # atno 2517 bound_to 623 
    0.2101   10.4138    8.6148 LP  0  0  0  0  0  0  0  0  0  0  0  0  # atno 3256 bound_to 1   
   21.2149   17.4147   16.1096 LP  0  0  0  0  0  0  0  0  0  0  0  0  # atno 3267 bound_to 314 
   19.7490   18.0711   15.8149 LP  0  0  0  0  0  0  0  0  0  0  0  0  # atno 3268 bound_to 314 
   25.8509    7.1228    5.2229 LP  0  0  0  0  0  0  0  0  0  0  0  0  # atno 3279 bound_to 347 
   26.3711    8.1242    4.0425 LP  0  0  0  0  0  0  0  0  0  0  0  0  # atno 3280 bound_to 347 
   24.3554   15.0597    3.2719 LP  0  0  0  0  0  0  0  0  0  0  0  0  # atno 3287 bound_to 369 
   23.4588   15.7580    4.4446 LP  0  0  0  0  0  0  0  0  0  0  0  0  # atno 3288 bound_to 369 
   18.6199   18.5240   -4.6026 LP  0  0  0  0  0  0  0  0  0  0  0  0  # atno 3291 bound_to 410 
   20.0815   17.9367   -4.1717 LP  0  0  0  0  0  0  0  0  0  0  0  0  # atno 3292 bound_to 410 
    8.0169    7.3835   -2.0022 LP  0  0  0  0  0  0  0  0  0  0  0  0  # atno 3308 bound_to 607 
    7.7574    7.3235   -3.6134 LP  0  0  0  0  0  0  0  0  0  0  0  0  # atno 3309 bound_to 607 

$$$$
