MEPPEP|meppep|sdf|1|dock9
  -GOLD-   6242416 73D 1   1.00000     0.00000

 33 36  0  0  0  0  0  0  0  0  1 V2000
    9.7994   15.4223   -7.0355 C   0  0  0  0  0  0  0  0  0  0  0  0
    9.9569   14.8638   -5.6523 O   0  0  0  0  0  0  0  0  0  0  0  0
    9.2489   15.5089   -4.4979 C   0  0  0  0  0  0  0  0  0  0  0  0
    9.6604   16.8748   -4.0343 C   0  0  0  0  0  0  0  0  0  0  0  0
    8.9524   17.5199   -2.8799 C   0  0  0  0  0  0  0  0  0  0  0  0
    7.8329   16.7991   -2.1891 C   0  0  0  0  0  0  0  0  0  0  0  0
    7.4215   15.4332   -2.6527 C   0  0  0  0  0  0  0  0  0  0  0  0
    6.3020   14.7123   -1.9619 C   0  0  0  0  0  0  0  0  0  0  0  0
    4.9254   14.4867   -2.5136 C   0  0  0  0  0  0  0  0  0  0  0  0
    4.1352   13.7255   -1.4909 C   0  0  0  0  0  0  0  0  0  0  0  0
    2.7075   13.2863   -1.6279 N   0  0  0  0  0  0  0  0  0  0  0  0
    2.1931   12.1410   -0.8070 C   0  0  0  0  0  0  0  0  0  0  0  0
    1.6712   12.3858    0.5778 C   0  0  0  0  0  0  0  0  0  0  0  0
    2.2008   10.7510   -1.3709 C   0  0  0  0  0  0  0  0  0  0  0  0
    2.4520    9.5778   -0.4706 C   0  0  0  0  0  0  0  0  0  0  0  0
    2.4596    8.1879   -1.0345 C   0  0  0  0  0  0  0  0  0  0  0  0
    2.2160    7.9712   -2.4986 C   0  0  0  0  0  0  0  0  0  0  0  0
    1.9648    9.1444   -3.3988 C   0  0  0  0  0  0  0  0  0  0  0  0
    1.9572   10.5344   -2.8350 C   0  0  0  0  0  0  0  0  0  0  0  0
    5.0233   13.4806   -0.3071 C   0  0  0  0  0  0  0  0  0  0  0  0
    4.6397   12.7535    0.9475 O   0  0  0  0  0  0  0  0  0  0  0  0
    6.3624   14.0905   -0.5983 N   0  0  0  0  0  0  0  0  0  0  0  0
    7.5530   14.0804    0.3141 C   0  0  0  0  0  0  0  0  0  0  0  0
    8.6855   15.0357    0.0799 C   0  0  0  0  0  0  0  0  0  0  0  0
    9.8761   15.0256    0.9923 C   0  0  0  0  0  0  0  0  0  0  0  0
    9.9342   14.0602    2.1389 C   0  0  0  0  0  0  0  0  0  0  0  0
   11.1247   14.0501    3.0513 C   0  0  0  0  0  0  0  0  0  0  0  0
   12.3153   14.0399    3.9637 F   0  0  0  0  0  0  0  0  0  0  0  0
   11.9762   13.5231    1.9344 F   0  0  0  0  0  0  0  0  0  0  0  0
   10.2732   14.5769    4.1682 F   0  0  0  0  0  0  0  0  0  0  0  0
    8.8016   13.1050    2.3731 C   0  0  0  0  0  0  0  0  0  0  0  0
    7.6111   13.1151    1.4607 C   0  0  0  0  0  0  0  0  0  0  0  0
    8.1294   14.7881   -3.8071 C   0  0  0  0  0  0  0  0  0  0  0  0
  1  2  1  0  0  0  0
  2  3  1  0  0  0  0
  3  4  2  0  0  0  0
  4  5  1  0  0  0  0
  5  6  2  0  0  0  0
  6  7  1  0  0  0  0
  8  7  1  0  0  0  0
  8  9  1  0  0  0  0
  9 10  1  0  0  0  0
 10 11  1  0  0  0  0
 11 12  1  0  0  0  0
 12 13  1  0  0  0  0
 12 14  1  0  0  0  0
 14 15  2  0  0  0  0
 15 16  1  0  0  0  0
 16 17  2  0  0  0  0
 17 18  1  0  0  0  0
 18 19  2  0  0  0  0
 10 20  1  0  0  0  0
 20 21  2  0  0  0  0
 20 22  1  0  0  0  0
 22 23  1  0  0  0  0
 23 24  2  0  0  0  0
 24 25  1  0  0  0  0
 25 26  2  0  0  0  0
 26 27  1  0  0  0  0
 27 28  1  0  0  0  0
 27 29  1  0  0  0  0
 27 30  1  0  0  0  0
 26 31  1  0  0  0  0
 31 32  2  0  0  0  0
  7 33  2  0  0  0  0
 33  3  1  0  0  0  0
 22  8  1  0  0  0  0
 32 23  1  0  0  0  0
 19 14  1  0  0  0  0
M  END
> <Gold.Version>
2024.1.0

> <Gold.Id.Protein>
6Q9L|6Q9L_protein|mol2

> <Gold.PLP.Fitness>
42.5692

> <Gold.PLP.PLP>
-45.3366

> <Gold.PLP.part.hbond>
-1.8579

> <Gold.PLP.part.metal>
0.0000

> <Gold.PLP.part.buried>
-3.6960

> <Gold.PLP.part.nonpolar>
-41.2660

> <Gold.PLP.part.repulsive>
0.2858

> <Gold.PLP.ligand.clash>
0.1820

> <Gold.PLP.ligand.torsion>
3.1020

> <Gold.PLP.Chemscore.Hbond>
0.0218

> <Gold.PLP.Chemscore.CHOScore>
0.0000

> <Gold.PLP.Chemscore.Metal>
0.0000

> <Gold.Chemscore.Hbonds>
donor molecule, donor type, donor heavy atom, donor atom, acceptor molecule, acceptor atom, score
      P1  H   455  2145       L1     2  0.02

> <Gold.PLP.Chemscore.Internal.Correction>
3.5531

> <Gold.Protein.RotatedTorsions>
[ 1932    1    2    3 ] final  -22.46 input   60.00 | X-H torsion
[ 1726  314  313  311 ] final  104.09 input -140.00 | X-H torsion
[ 1619  347  346  344 ] final   51.08 input  180.00 | X-H torsion
[ 1600  369  368  365 ] final  -75.27 input  -80.00 | X-H torsion
[ 2112  410  409  407 ] final  169.13 input   -0.00 | X-H torsion
[ 2483  607  606  603 ] final   56.14 input  170.00 | X-H torsion
[ 2515  623  622  621 ] final -119.44 input   70.00 | X-H torsion

> <Gold.Protein.ActiveResidues>
 GLN18   LEU54   PHE55   TYR56   LEU57   GLY58   GLN59   TYR60   ILE61   MET62  
 THR63   TYR67   GLN72   HIS73   ILE74   VAL75   PHE91   SER92   VAL93   LYS94  
 GLU95   HIS96   ILE99  

> <Gold.Protein.RotatedAtoms>
   23.3826   15.6281    4.2395 H   0  0  0  0  0  0  0  0  0  0  0  0  # atno 1600 bound_to 369 
   25.9302    7.1967    5.2305 H   0  0  0  0  0  0  0  0  0  0  0  0  # atno 1619 bound_to 347 
   19.8213   18.3533   15.4209 H   0  0  0  0  0  0  0  0  0  0  0  0  # atno 1726 bound_to 314 
    0.4753   10.4510    8.7424 H   0  0  0  0  0  0  0  0  0  0  0  0  # atno 1932 bound_to 1   
   -0.0324   10.6505    7.1771 H   0  0  0  0  0  0  0  0  0  0  0  0  # atno 1933 bound_to 1   
   19.4851   18.1593   -3.0378 H   0  0  0  0  0  0  0  0  0  0  0  0  # atno 2112 bound_to 410 
    8.9541    8.0933   -3.3080 H   0  0  0  0  0  0  0  0  0  0  0  0  # atno 2483 bound_to 607 
    5.3205   11.8591   -6.1223 H   0  0  0  0  0  0  0  0  0  0  0  0  # atno 2515 bound_to 623 
    4.3482   12.8378   -5.2034 H   0  0  0  0  0  0  0  0  0  0  0  0  # atno 2516 bound_to 623 
    4.0924   11.2003   -5.2250 H   0  0  0  0  0  0  0  0  0  0  0  0  # atno 2517 bound_to 623 
    1.5431   10.9060    7.5763 LP  0  0  0  0  0  0  0  0  0  0  0  0  # atno 3256 bound_to 1   
   21.3958   18.1904   15.0437 LP  0  0  0  0  0  0  0  0  0  0  0  0  # atno 3267 bound_to 314 
   20.7707   17.3825   16.3177 LP  0  0  0  0  0  0  0  0  0  0  0  0  # atno 3268 bound_to 314 
   26.3195    8.1180    3.9469 LP  0  0  0  0  0  0  0  0  0  0  0  0  # atno 3279 bound_to 347 
   25.1043    7.0327    3.8380 LP  0  0  0  0  0  0  0  0  0  0  0  0  # atno 3280 bound_to 347 
   24.9201   15.9581    4.6579 LP  0  0  0  0  0  0  0  0  0  0  0  0  # atno 3287 bound_to 369 
   24.6057   15.0940    3.3085 LP  0  0  0  0  0  0  0  0  0  0  0  0  # atno 3288 bound_to 369 
   18.3805   18.6143   -4.1427 LP  0  0  0  0  0  0  0  0  0  0  0  0  # atno 3291 bound_to 410 
   19.8320   18.0411   -4.6233 LP  0  0  0  0  0  0  0  0  0  0  0  0  # atno 3292 bound_to 410 
    8.2657    7.5442   -1.9395 LP  0  0  0  0  0  0  0  0  0  0  0  0  # atno 3308 bound_to 607 
    7.5958    7.2007   -3.3887 LP  0  0  0  0  0  0  0  0  0  0  0  0  # atno 3309 bound_to 607 

$$$$
