Atorvastatin|atorvastatin|sdf|1|dock1
  -GOLD-   6242416 73D 1   1.00000     0.00000

 41 44  0  0  0  0  0  0  0  0  1 V2000
    7.1535   15.6807   -1.2084 C   0  0  0  0  0  0  0  0  0  0  0  0
    6.1896   15.1972   -0.1658 C   0  0  0  0  0  0  0  0  0  0  0  0
    6.4112   15.5407    1.2774 C   0  0  0  0  0  0  0  0  0  0  0  0
    5.0040   14.3702   -0.5665 C   0  0  0  0  0  0  0  0  0  0  0  0
    4.4457   13.2034    0.1929 C   0  0  0  0  0  0  0  0  0  0  0  0
    4.9750   12.6586    1.4865 C   0  0  0  0  0  0  0  0  0  0  0  0
    6.4529   12.4903    1.6805 O   0  0  0  0  0  0  0  0  0  0  0  0
    4.0266   12.2822    2.5859 N   0  0  0  0  0  0  0  0  0  0  0  0
    3.6820   13.2785    3.6530 C   0  0  0  0  0  0  0  0  0  0  0  0
    4.2561   14.6633    3.5998 C   0  0  0  0  0  0  0  0  0  0  0  0
    3.9115   15.6595    4.6669 C   0  0  0  0  0  0  0  0  0  0  0  0
    2.9928   15.2709    5.7872 C   0  0  0  0  0  0  0  0  0  0  0  0
    2.4188   13.8862    5.8405 C   0  0  0  0  0  0  0  0  0  0  0  0
    2.7634   12.8900    4.7733 C   0  0  0  0  0  0  0  0  0  0  0  0
    3.2652   12.6769   -0.5681 C   0  0  0  0  0  0  0  0  0  0  0  0
    2.4068   11.5133   -0.1693 C   0  0  0  0  0  0  0  0  0  0  0  0
    2.7101   10.1420   -0.6963 C   0  0  0  0  0  0  0  0  0  0  0  0
    1.8517    8.9785   -0.2974 C   0  0  0  0  0  0  0  0  0  0  0  0
    0.6899    9.1860    0.6284 C   0  0  0  0  0  0  0  0  0  0  0  0
    0.3866   10.5573    1.1554 C   0  0  0  0  0  0  0  0  0  0  0  0
    1.2450   11.7208    0.7565 C   0  0  0  0  0  0  0  0  0  0  0  0
    3.0939   13.5183   -1.7980 C   0  0  0  0  0  0  0  0  0  0  0  0
    2.0341   13.3439   -2.8450 C   0  0  0  0  0  0  0  0  0  0  0  0
    1.2371   12.0743   -2.9014 C   0  0  0  0  0  0  0  0  0  0  0  0
    0.1773   11.8999   -3.9483 C   0  0  0  0  0  0  0  0  0  0  0  0
   -0.0857   12.9950   -4.9391 C   0  0  0  0  0  0  0  0  0  0  0  0
   -1.1455   12.8206   -5.9861 F   0  0  0  0  0  0  0  0  0  0  0  0
    0.7112   14.2647   -4.8828 C   0  0  0  0  0  0  0  0  0  0  0  0
    1.7711   14.4390   -3.8357 C   0  0  0  0  0  0  0  0  0  0  0  0
    4.1685   14.5649   -1.7970 N   0  0  0  0  0  0  0  0  0  0  0  0
    4.3719   15.6207   -2.8429 C   0  0  0  0  0  0  0  0  0  0  0  0
    4.6364   15.2259   -4.2656 C   0  0  0  0  0  0  0  0  0  0  0  0
    5.0094   16.2694   -5.2765 C   0  0  0  0  0  0  0  0  0  0  0  0
    5.0407   17.7168   -4.8838 O   0  0  0  0  0  0  0  0  0  0  0  0
    5.3510   15.8656   -6.6802 C   0  0  0  0  0  0  0  0  0  0  0  0
    6.4063   14.8283   -6.9264 C   0  0  0  0  0  0  0  0  0  0  0  0
    6.0304   13.5015   -7.5167 O   0  0  0  0  0  0  0  0  0  0  0  0
    7.8373   15.1180   -6.5825 C   0  0  0  0  0  0  0  0  0  0  0  0
    8.8782   15.1411   -7.6623 C   0  0  0  0  0  0  0  0  0  0  0  0
    8.4977   14.8231   -9.0779 O   0  0  0  0  0  0  0  0  0  0  0  0
   10.2998   15.4821   -7.3264 O   0  0  0  0  0  0  0  0  0  0  0  0
  1  2  1  0  0  0  0
  2  3  1  0  0  0  0
  2  4  1  0  0  0  0
  4  5  2  0  0  0  0
  5  6  1  0  0  0  0
  6  7  2  0  0  0  0
  6  8  1  0  0  0  0
  8  9  1  0  0  0  0
  9 10  2  0  0  0  0
 10 11  1  0  0  0  0
 11 12  2  0  0  0  0
 12 13  1  0  0  0  0
 13 14  2  0  0  0  0
  5 15  1  0  0  0  0
 15 16  1  0  0  0  0
 16 17  2  0  0  0  0
 17 18  1  0  0  0  0
 18 19  2  0  0  0  0
 19 20  1  0  0  0  0
 20 21  2  0  0  0  0
 15 22  2  0  0  0  0
 22 23  1  0  0  0  0
 23 24  2  0  0  0  0
 24 25  1  0  0  0  0
 25 26  2  0  0  0  0
 26 27  1  0  0  0  0
 26 28  1  0  0  0  0
 28 29  2  0  0  0  0
 22 30  1  0  0  0  0
 30 31  1  0  0  0  0
 31 32  1  0  0  0  0
 32 33  1  0  0  0  0
 33 34  1  0  0  0  0
 33 35  1  0  0  0  0
 35 36  1  0  0  0  0
 36 37  1  0  0  0  0
 36 38  1  0  0  0  0
 38 39  1  0  0  0  0
 39 40  2  0  0  0  0
 39 41  1  0  0  0  0
 30  4  1  0  0  0  0
 14  9  1  0  0  0  0
 21 16  1  0  0  0  0
 29 23  1  0  0  0  0
M  END
> <Gold.Version>
2024.1.0

> <Gold.Id.Protein>
6Q9L|6Q9L_protein|mol2

> <Gold.PLP.Fitness>
56.0471

> <Gold.PLP.PLP>
-43.5222

> <Gold.PLP.part.hbond>
-4.6360

> <Gold.PLP.part.metal>
0.0000

> <Gold.PLP.part.buried>
-8.3515

> <Gold.PLP.part.nonpolar>
-32.2989

> <Gold.PLP.part.repulsive>
0.5009

> <Gold.PLP.ligand.clash>
0.0000

> <Gold.PLP.ligand.torsion>
3.7579

> <Gold.PLP.Chemscore.Hbond>
4.4282

> <Gold.PLP.Chemscore.CHOScore>
0.0000

> <Gold.PLP.Chemscore.Metal>
0.0000

> <Gold.Chemscore.Hbonds>
donor molecule, donor type, donor heavy atom, donor atom, acceptor molecule, acceptor atom, score
      P1  H     9  1929       L1     8  0.43
      P1  H   446  2149       L1    41  1.00
      P1  H   623  2515       L1    37  2.00
      P1  H   642  3253       L1     7  1.00

> <Gold.PLP.Chemscore.Internal.Correction>
6.7561

> <Gold.Protein.RotatedTorsions>
[ 1932    1    2    3 ] final   78.06 input   60.00 | X-H torsion
[ 1726  314  313  311 ] final   91.66 input -140.00 | X-H torsion
[ 1619  347  346  344 ] final   60.85 input  180.00 | X-H torsion
[ 1600  369  368  365 ] final  175.82 input  -80.00 | X-H torsion
[ 2112  410  409  407 ] final  131.90 input   -0.00 | X-H torsion
[ 2483  607  606  603 ] final  157.15 input  170.00 | X-H torsion
[ 2515  623  622  621 ] final -163.35 input   70.00 | X-H torsion

> <Gold.Protein.ActiveResidues>
 GLN18   LEU54   PHE55   TYR56   LEU57   GLY58   GLN59   TYR60   ILE61   MET62  
 THR63   TYR67   GLN72   HIS73   ILE74   VAL75   PHE91   SER92   VAL93   LYS94  
 GLU95   HIS96   ILE99  

> <Gold.Protein.RotatedAtoms>
   24.7687   16.0086    4.7446 H   0  0  0  0  0  0  0  0  0  0  0  0  # atno 1600 bound_to 369 
   25.8098    7.0948    5.2070 H   0  0  0  0  0  0  0  0  0  0  0  0  # atno 1619 bound_to 347 
   19.9181   18.4441   15.2677 H   0  0  0  0  0  0  0  0  0  0  0  0  # atno 1726 bound_to 314 
    1.6021   10.8622    7.8896 H   0  0  0  0  0  0  0  0  0  0  0  0  # atno 1932 bound_to 1   
    0.1804   10.4128    8.6138 H   0  0  0  0  0  0  0  0  0  0  0  0  # atno 1933 bound_to 1   
   18.9302   18.3807   -3.0534 H   0  0  0  0  0  0  0  0  0  0  0  0  # atno 2112 bound_to 410 
    7.7676    7.3273   -3.6136 H   0  0  0  0  0  0  0  0  0  0  0  0  # atno 2483 bound_to 607 
    5.2179   12.5447   -5.9443 H   0  0  0  0  0  0  0  0  0  0  0  0  # atno 2515 bound_to 623 
    3.9232   12.3301   -4.9318 H   0  0  0  0  0  0  0  0  0  0  0  0  # atno 2516 bound_to 623 
    4.6200   11.0225   -5.6746 H   0  0  0  0  0  0  0  0  0  0  0  0  # atno 2517 bound_to 623 
    0.2232   10.7351    7.0010 LP  0  0  0  0  0  0  0  0  0  0  0  0  # atno 3256 bound_to 1   
   21.4972   18.0642   15.1680 LP  0  0  0  0  0  0  0  0  0  0  0  0  # atno 3267 bound_to 314 
   20.5718   17.4172   16.3476 LP  0  0  0  0  0  0  0  0  0  0  0  0  # atno 3268 bound_to 314 
   26.3929    8.1240    4.0895 LP  0  0  0  0  0  0  0  0  0  0  0  0  # atno 3279 bound_to 347 
   25.1520    7.1293    3.7190 LP  0  0  0  0  0  0  0  0  0  0  0  0  # atno 3280 bound_to 347 
   24.7714   15.1395    3.3689 LP  0  0  0  0  0  0  0  0  0  0  0  0  # atno 3287 bound_to 369 
   23.3586   15.5294    4.0888 LP  0  0  0  0  0  0  0  0  0  0  0  0  # atno 3288 bound_to 369 
   18.6745   18.5028   -4.6559 LP  0  0  0  0  0  0  0  0  0  0  0  0  # atno 3291 bound_to 410 
   20.0968   17.9297   -4.0944 LP  0  0  0  0  0  0  0  0  0  0  0  0  # atno 3292 bound_to 410 
    9.0461    8.1369   -3.0151 LP  0  0  0  0  0  0  0  0  0  0  0  0  # atno 3308 bound_to 607 
    8.0103    7.3793   -2.0053 LP  0  0  0  0  0  0  0  0  0  0  0  0  # atno 3309 bound_to 607 

$$$$
