MEPPEP|meppep|sdf|1|dock8
  -GOLD-   6242416 73D 1   1.00000     0.00000

 33 36  0  0  0  0  0  0  0  0  1 V2000
    9.4574   12.7155    4.7362 C   0  0  0  0  0  0  0  0  0  0  0  0
    9.0950   12.3423    3.3294 O   0  0  0  0  0  0  0  0  0  0  0  0
    8.5933   13.3904    2.3809 C   0  0  0  0  0  0  0  0  0  0  0  0
    9.3587   14.6679    2.2016 C   0  0  0  0  0  0  0  0  0  0  0  0
    8.8569   15.7160    1.2531 C   0  0  0  0  0  0  0  0  0  0  0  0
    7.5898   15.4868    0.4840 C   0  0  0  0  0  0  0  0  0  0  0  0
    6.8243   14.2093    0.6633 C   0  0  0  0  0  0  0  0  0  0  0  0
    5.5571   13.9800   -0.1059 C   0  0  0  0  0  0  0  0  0  0  0  0
    4.2564   13.4949    0.4623 C   0  0  0  0  0  0  0  0  0  0  0  0
    3.2635   13.4106   -0.6589 C   0  0  0  0  0  0  0  0  0  0  0  0
    1.8344   12.9705   -0.5398 N   0  0  0  0  0  0  0  0  0  0  0  0
    1.3049   12.4905    0.7789 C   0  0  0  0  0  0  0  0  0  0  0  0
    1.3965   13.3715    1.9895 C   0  0  0  0  0  0  0  0  0  0  0  0
    0.6838   11.1294    0.8872 C   0  0  0  0  0  0  0  0  0  0  0  0
    0.5871   10.2506   -0.3246 C   0  0  0  0  0  0  0  0  0  0  0  0
   -0.0340    8.8895   -0.2164 C   0  0  0  0  0  0  0  0  0  0  0  0
   -0.5583    8.4073    1.1036 C   0  0  0  0  0  0  0  0  0  0  0  0
   -0.4616    9.2860    2.3154 C   0  0  0  0  0  0  0  0  0  0  0  0
    0.1595   10.6471    2.2071 C   0  0  0  0  0  0  0  0  0  0  0  0
    3.9506   13.8435   -1.9200 C   0  0  0  0  0  0  0  0  0  0  0  0
    3.3292   13.9125   -3.2836 O   0  0  0  0  0  0  0  0  0  0  0  0
    5.3681   14.1954   -1.5783 N   0  0  0  0  0  0  0  0  0  0  0  0
    6.4131   14.6780   -2.5400 C   0  0  0  0  0  0  0  0  0  0  0  0
    7.8606   14.3746   -2.2891 C   0  0  0  0  0  0  0  0  0  0  0  0
    8.9056   14.8573   -3.2509 C   0  0  0  0  0  0  0  0  0  0  0  0
    8.5033   15.6432   -4.4635 C   0  0  0  0  0  0  0  0  0  0  0  0
    9.5483   16.1258   -5.4253 C   0  0  0  0  0  0  0  0  0  0  0  0
   10.5933   16.6085   -6.3870 F   0  0  0  0  0  0  0  0  0  0  0  0
   10.0640   17.0780   -4.3871 F   0  0  0  0  0  0  0  0  0  0  0  0
    9.0326   15.1738   -6.4634 F   0  0  0  0  0  0  0  0  0  0  0  0
    7.0559   15.9466   -4.7143 C   0  0  0  0  0  0  0  0  0  0  0  0
    6.0108   15.4639   -3.7526 C   0  0  0  0  0  0  0  0  0  0  0  0
    7.3261   13.1611    1.6117 C   0  0  0  0  0  0  0  0  0  0  0  0
  1  2  1  0  0  0  0
  2  3  1  0  0  0  0
  3  4  2  0  0  0  0
  4  5  1  0  0  0  0
  5  6  2  0  0  0  0
  6  7  1  0  0  0  0
  8  7  1  0  0  0  0
  8  9  1  0  0  0  0
  9 10  1  0  0  0  0
 10 11  1  0  0  0  0
 11 12  1  0  0  0  0
 12 13  1  0  0  0  0
 12 14  1  0  0  0  0
 14 15  2  0  0  0  0
 15 16  1  0  0  0  0
 16 17  2  0  0  0  0
 17 18  1  0  0  0  0
 18 19  2  0  0  0  0
 10 20  1  0  0  0  0
 20 21  2  0  0  0  0
 20 22  1  0  0  0  0
 22 23  1  0  0  0  0
 23 24  2  0  0  0  0
 24 25  1  0  0  0  0
 25 26  2  0  0  0  0
 26 27  1  0  0  0  0
 27 28  1  0  0  0  0
 27 29  1  0  0  0  0
 27 30  1  0  0  0  0
 26 31  1  0  0  0  0
 31 32  2  0  0  0  0
  7 33  2  0  0  0  0
 33  3  1  0  0  0  0
 22  8  1  0  0  0  0
 32 23  1  0  0  0  0
 19 14  1  0  0  0  0
M  END
> <Gold.Version>
2024.1.0

> <Gold.Id.Protein>
6Q9L|6Q9L_protein|mol2

> <Gold.PLP.Fitness>
41.0368

> <Gold.PLP.PLP>
-41.2900

> <Gold.PLP.part.hbond>
-1.4188

> <Gold.PLP.part.metal>
0.0000

> <Gold.PLP.part.buried>
-4.3118

> <Gold.PLP.part.nonpolar>
-36.7101

> <Gold.PLP.part.repulsive>
0.1780

> <Gold.PLP.ligand.clash>
0.0000

> <Gold.PLP.ligand.torsion>
1.9953

> <Gold.PLP.Chemscore.Hbond>
0.0000

> <Gold.PLP.Chemscore.CHOScore>
0.0000

> <Gold.PLP.Chemscore.Metal>
0.0000

> <Gold.PLP.Chemscore.Internal.Correction>
3.7375

> <Gold.Protein.RotatedTorsions>
[ 1932    1    2    3 ] final  -95.70 input   60.00 | X-H torsion
[ 1726  314  313  311 ] final  -72.77 input -140.00 | X-H torsion
[ 1619  347  346  344 ] final  -95.37 input  180.00 | X-H torsion
[ 1600  369  368  365 ] final  -13.73 input  -80.00 | X-H torsion
[ 2112  410  409  407 ] final  -32.40 input   -0.00 | X-H torsion
[ 2483  607  606  603 ] final  123.38 input  170.00 | X-H torsion
[ 2515  623  622  621 ] final  -90.61 input   70.00 | X-H torsion

> <Gold.Protein.ActiveResidues>
 GLN18   LEU54   PHE55   TYR56   LEU57   GLY58   GLN59   TYR60   ILE61   MET62  
 THR63   TYR67   GLN72   HIS73   ILE74   VAL75   PHE91   SER92   VAL93   LYS94  
 GLU95   HIS96   ILE99  

> <Gold.Protein.RotatedAtoms>
   23.7047   15.1577    3.4697 H   0  0  0  0  0  0  0  0  0  0  0  0  # atno 1600 bound_to 369 
   26.0472    8.0042    3.6342 H   0  0  0  0  0  0  0  0  0  0  0  0  # atno 1619 bound_to 347 
   21.5175   17.6228   15.7244 H   0  0  0  0  0  0  0  0  0  0  0  0  # atno 1726 bound_to 314 
   -0.2667   10.4623    7.8746 H   0  0  0  0  0  0  0  0  0  0  0  0  # atno 1932 bound_to 1   
    1.0618   10.9220    6.9963 H   0  0  0  0  0  0  0  0  0  0  0  0  # atno 1933 bound_to 1   
   19.3030   18.2521   -4.8659 H   0  0  0  0  0  0  0  0  0  0  0  0  # atno 2112 bound_to 410 
    8.1832    7.6169   -3.8116 H   0  0  0  0  0  0  0  0  0  0  0  0  # atno 2483 bound_to 607 
    5.1583   11.4164   -6.0533 H   0  0  0  0  0  0  0  0  0  0  0  0  # atno 2515 bound_to 623 
    4.7198   12.9132   -5.4920 H   0  0  0  0  0  0  0  0  0  0  0  0  # atno 2516 bound_to 623 
    3.8830   11.5677   -5.0054 H   0  0  0  0  0  0  0  0  0  0  0  0  # atno 2517 bound_to 623 
    1.1961   10.6274    8.6094 LP  0  0  0  0  0  0  0  0  0  0  0  0  # atno 3256 bound_to 1   
   19.9570   17.7329   16.1721 LP  0  0  0  0  0  0  0  0  0  0  0  0  # atno 3267 bound_to 314 
   20.5012   18.5756   14.8836 LP  0  0  0  0  0  0  0  0  0  0  0  0  # atno 3268 bound_to 314 
   25.0761    6.8383    4.2222 LP  0  0  0  0  0  0  0  0  0  0  0  0  # atno 3279 bound_to 347 
   26.2298    7.4992    5.1703 LP  0  0  0  0  0  0  0  0  0  0  0  0  # atno 3280 bound_to 347 
   23.9718   16.0199    4.8237 LP  0  0  0  0  0  0  0  0  0  0  0  0  # atno 3287 bound_to 369 
   25.2297   15.5060    3.9180 LP  0  0  0  0  0  0  0  0  0  0  0  0  # atno 3288 bound_to 369 
   19.9539   17.9790   -3.3997 LP  0  0  0  0  0  0  0  0  0  0  0  0  # atno 3291 bound_to 410 
   18.4420   18.5830   -3.5253 LP  0  0  0  0  0  0  0  0  0  0  0  0  # atno 3292 bound_to 410 
    8.9951    8.0654   -2.4745 LP  0  0  0  0  0  0  0  0  0  0  0  0  # atno 3308 bound_to 607 
    7.6427    7.1592   -2.3466 LP  0  0  0  0  0  0  0  0  0  0  0  0  # atno 3309 bound_to 607 

$$$$
