Atorvastatin|atorvastatin|sdf|1|dock10
  -GOLD-   6242416 73D 1   1.00000     0.00000

 41 44  0  0  0  0  0  0  0  0  1 V2000
    2.9554   13.3462    1.8292 C   0  0  0  0  0  0  0  0  0  0  0  0
    3.7294   12.8652    0.6378 C   0  0  0  0  0  0  0  0  0  0  0  0
    4.7734   11.8006    0.8015 C   0  0  0  0  0  0  0  0  0  0  0  0
    3.4595   13.4489   -0.7174 C   0  0  0  0  0  0  0  0  0  0  0  0
    2.4720   12.9299   -1.7202 C   0  0  0  0  0  0  0  0  0  0  0  0
    1.5811   11.7360   -1.5439 C   0  0  0  0  0  0  0  0  0  0  0  0
    1.2726   10.8510   -2.7150 O   0  0  0  0  0  0  0  0  0  0  0  0
    0.9988   11.4273   -0.1965 N   0  0  0  0  0  0  0  0  0  0  0  0
    0.9302   10.0078    0.2836 C   0  0  0  0  0  0  0  0  0  0  0  0
    1.7996    8.9602   -0.3463 C   0  0  0  0  0  0  0  0  0  0  0  0
    1.7310    7.5408    0.1338 C   0  0  0  0  0  0  0  0  0  0  0  0
    0.7930    7.1690    1.2437 C   0  0  0  0  0  0  0  0  0  0  0  0
   -0.0764    8.2165    1.8735 C   0  0  0  0  0  0  0  0  0  0  0  0
   -0.0078    9.6359    1.3935 C   0  0  0  0  0  0  0  0  0  0  0  0
    2.5319   13.8143   -2.9303 C   0  0  0  0  0  0  0  0  0  0  0  0
    1.7113   13.6601   -4.1764 C   0  0  0  0  0  0  0  0  0  0  0  0
    0.3490   13.0366   -4.1050 C   0  0  0  0  0  0  0  0  0  0  0  0
   -0.4715   12.8824   -5.3512 C   0  0  0  0  0  0  0  0  0  0  0  0
    0.0703   13.3518   -6.6689 C   0  0  0  0  0  0  0  0  0  0  0  0
    1.4327   13.9753   -6.7403 C   0  0  0  0  0  0  0  0  0  0  0  0
    2.2532   14.1295   -5.4941 C   0  0  0  0  0  0  0  0  0  0  0  0
    3.5563   14.8799   -2.6754 C   0  0  0  0  0  0  0  0  0  0  0  0
    3.9400   15.9784   -3.6219 C   0  0  0  0  0  0  0  0  0  0  0  0
    2.8775   16.8185   -4.2664 C   0  0  0  0  0  0  0  0  0  0  0  0
    3.2612   17.9170   -5.2129 C   0  0  0  0  0  0  0  0  0  0  0  0
    4.7076   18.1756   -5.5149 C   0  0  0  0  0  0  0  0  0  0  0  0
    5.0914   19.2741   -6.4615 F   0  0  0  0  0  0  0  0  0  0  0  0
    5.7702   17.3355   -4.8704 C   0  0  0  0  0  0  0  0  0  0  0  0
    5.3864   16.2370   -3.9239 C   0  0  0  0  0  0  0  0  0  0  0  0
    4.1296   14.6541   -1.3077 N   0  0  0  0  0  0  0  0  0  0  0  0
    5.1873   15.4872   -0.6465 C   0  0  0  0  0  0  0  0  0  0  0  0
    5.9675   14.9311    0.5076 C   0  0  0  0  0  0  0  0  0  0  0  0
    7.0113   13.8802    0.2703 C   0  0  0  0  0  0  0  0  0  0  0  0
    7.6076   13.7104   -1.0955 O   0  0  0  0  0  0  0  0  0  0  0  0
    7.4587   12.9993    1.3989 C   0  0  0  0  0  0  0  0  0  0  0  0
    8.6502   13.3851    2.2245 C   0  0  0  0  0  0  0  0  0  0  0  0
    9.0464   12.5496    3.4057 O   0  0  0  0  0  0  0  0  0  0  0  0
    9.4455   14.6062    1.8689 C   0  0  0  0  0  0  0  0  0  0  0  0
   10.9296   14.5046    1.6758 C   0  0  0  0  0  0  0  0  0  0  0  0
   11.5429   14.8868    0.3615 O   0  0  0  0  0  0  0  0  0  0  0  0
   11.8003   14.0207    2.7973 O   0  0  0  0  0  0  0  0  0  0  0  0
  1  2  1  0  0  0  0
  2  3  1  0  0  0  0
  2  4  1  0  0  0  0
  4  5  2  0  0  0  0
  5  6  1  0  0  0  0
  6  7  2  0  0  0  0
  6  8  1  0  0  0  0
  8  9  1  0  0  0  0
  9 10  2  0  0  0  0
 10 11  1  0  0  0  0
 11 12  2  0  0  0  0
 12 13  1  0  0  0  0
 13 14  2  0  0  0  0
  5 15  1  0  0  0  0
 15 16  1  0  0  0  0
 16 17  2  0  0  0  0
 17 18  1  0  0  0  0
 18 19  2  0  0  0  0
 19 20  1  0  0  0  0
 20 21  2  0  0  0  0
 15 22  2  0  0  0  0
 22 23  1  0  0  0  0
 23 24  2  0  0  0  0
 24 25  1  0  0  0  0
 25 26  2  0  0  0  0
 26 27  1  0  0  0  0
 26 28  1  0  0  0  0
 28 29  2  0  0  0  0
 22 30  1  0  0  0  0
 30 31  1  0  0  0  0
 31 32  1  0  0  0  0
 32 33  1  0  0  0  0
 33 34  1  0  0  0  0
 33 35  1  0  0  0  0
 35 36  1  0  0  0  0
 36 37  1  0  0  0  0
 36 38  1  0  0  0  0
 38 39  1  0  0  0  0
 39 40  2  0  0  0  0
 39 41  1  0  0  0  0
 30  4  1  0  0  0  0
 14  9  1  0  0  0  0
 21 16  1  0  0  0  0
 29 23  1  0  0  0  0
M  END
> <Gold.Version>
2024.1.0

> <Gold.Id.Protein>
6Q9L|6Q9L_protein|mol2

> <Gold.PLP.Fitness>
32.0957

> <Gold.PLP.PLP>
-35.4113

> <Gold.PLP.part.hbond>
-0.4554

> <Gold.PLP.part.metal>
0.0000

> <Gold.PLP.part.buried>
-6.2460

> <Gold.PLP.part.nonpolar>
-29.0739

> <Gold.PLP.part.repulsive>
0.1056

> <Gold.PLP.ligand.clash>
0.0018

> <Gold.PLP.ligand.torsion>
4.6568

> <Gold.PLP.Chemscore.Hbond>
0.0000

> <Gold.PLP.Chemscore.CHOScore>
0.0000

> <Gold.PLP.Chemscore.Metal>
0.0000

> <Gold.PLP.Chemscore.Internal.Correction>
5.9999

> <Gold.Protein.RotatedTorsions>
[ 1932    1    2    3 ] final   64.89 input   60.00 | X-H torsion
[ 1726  314  313  311 ] final   97.84 input -140.00 | X-H torsion
[ 1619  347  346  344 ] final   63.11 input  180.00 | X-H torsion
[ 1600  369  368  365 ] final   93.50 input  -80.00 | X-H torsion
[ 2112  410  409  407 ] final  127.82 input   -0.00 | X-H torsion
[ 2483  607  606  603 ] final -151.71 input  170.00 | X-H torsion
[ 2515  623  622  621 ] final   15.03 input   70.00 | X-H torsion

> <Gold.Protein.ActiveResidues>
 GLN18   LEU54   PHE55   TYR56   LEU57   GLY58   GLN59   TYR60   ILE61   MET62  
 THR63   TYR67   GLN72   HIS73   ILE74   VAL75   PHE91   SER92   VAL93   LYS94  
 GLU95   HIS96   ILE99  

> <Gold.Protein.RotatedAtoms>
   25.1659   15.3997    3.7496 H   0  0  0  0  0  0  0  0  0  0  0  0  # atno 1600 bound_to 369 
   25.7818    7.0726    5.1979 H   0  0  0  0  0  0  0  0  0  0  0  0  # atno 1619 bound_to 347 
   19.8654   18.4015   15.3423 H   0  0  0  0  0  0  0  0  0  0  0  0  # atno 1726 bound_to 314 
    1.5728   10.8140    8.1017 H   0  0  0  0  0  0  0  0  0  0  0  0  # atno 1932 bound_to 1   
    0.0108   10.4037    8.4748 H   0  0  0  0  0  0  0  0  0  0  0  0  # atno 1933 bound_to 1   
   18.8728   18.4038   -3.0786 H   0  0  0  0  0  0  0  0  0  0  0  0  # atno 2112 bound_to 410 
    7.4939    7.0953   -2.8894 H   0  0  0  0  0  0  0  0  0  0  0  0  # atno 2483 bound_to 607 
    3.9678   11.3657   -5.1017 H   0  0  0  0  0  0  0  0  0  0  0  0  # atno 2515 bound_to 623 
    5.2603   11.6263   -6.1063 H   0  0  0  0  0  0  0  0  0  0  0  0  # atno 2516 bound_to 623 
    4.5331   12.9052   -5.3427 H   0  0  0  0  0  0  0  0  0  0  0  0  # atno 2517 bound_to 623 
    0.4191   10.7915    6.9289 LP  0  0  0  0  0  0  0  0  0  0  0  0  # atno 3256 bound_to 1   
   21.4515   18.1278   15.1033 LP  0  0  0  0  0  0  0  0  0  0  0  0  # atno 3267 bound_to 314 
   20.6706   17.3966   16.3371 LP  0  0  0  0  0  0  0  0  0  0  0  0  # atno 3268 bound_to 314 
   26.4075    8.1226    4.1237 LP  0  0  0  0  0  0  0  0  0  0  0  0  # atno 3279 bound_to 347 
   25.1658    7.1530    3.6939 LP  0  0  0  0  0  0  0  0  0  0  0  0  # atno 3280 bound_to 347 
   23.5548   15.2285    3.5972 LP  0  0  0  0  0  0  0  0  0  0  0  0  # atno 3287 bound_to 369 
   24.1751   16.0535    4.8626 LP  0  0  0  0  0  0  0  0  0  0  0  0  # atno 3288 bound_to 369 
   18.7240   18.4835   -4.6971 LP  0  0  0  0  0  0  0  0  0  0  0  0  # atno 3291 bound_to 410 
   20.1051   17.9257   -4.0278 LP  0  0  0  0  0  0  0  0  0  0  0  0  # atno 3292 bound_to 410 
    8.6467    7.9189   -3.6900 LP  0  0  0  0  0  0  0  0  0  0  0  0  # atno 3308 bound_to 607 
    8.6851    7.8309   -2.0598 LP  0  0  0  0  0  0  0  0  0  0  0  0  # atno 3309 bound_to 607 

$$$$
