Atorvastatin|atorvastatin|sdf|1|dock5
  -GOLD-   6242416 73D 1   1.00000     0.00000

 41 44  0  0  0  0  0  0  0  0  1 V2000
    7.6481   14.5919   -3.2061 C   0  0  0  0  0  0  0  0  0  0  0  0
    7.9576   15.5099   -2.0608 C   0  0  0  0  0  0  0  0  0  0  0  0
    6.9655   16.5571   -1.6497 C   0  0  0  0  0  0  0  0  0  0  0  0
    9.2593   15.3806   -1.3267 C   0  0  0  0  0  0  0  0  0  0  0  0
   10.5573   16.0253   -1.7130 C   0  0  0  0  0  0  0  0  0  0  0  0
   10.7816   16.9127   -2.9015 C   0  0  0  0  0  0  0  0  0  0  0  0
   12.0862   17.6352   -3.0624 O   0  0  0  0  0  0  0  0  0  0  0  0
    9.7013   17.0774   -3.9290 N   0  0  0  0  0  0  0  0  0  0  0  0
   10.0604   17.2239   -5.3780 C   0  0  0  0  0  0  0  0  0  0  0  0
    9.6400   16.1753   -6.3647 C   0  0  0  0  0  0  0  0  0  0  0  0
    9.9991   16.3218   -7.8136 C   0  0  0  0  0  0  0  0  0  0  0  0
   10.7787   17.5170   -8.2759 C   0  0  0  0  0  0  0  0  0  0  0  0
   11.1992   18.5657   -7.2893 C   0  0  0  0  0  0  0  0  0  0  0  0
   10.8401   18.4191   -5.8403 C   0  0  0  0  0  0  0  0  0  0  0  0
   11.5917   15.6271   -0.7023 C   0  0  0  0  0  0  0  0  0  0  0  0
   13.0319   16.0462   -0.7027 C   0  0  0  0  0  0  0  0  0  0  0  0
   13.9200   15.6778   -1.8541 C   0  0  0  0  0  0  0  0  0  0  0  0
   15.3602   16.0970   -1.8544 C   0  0  0  0  0  0  0  0  0  0  0  0
   15.9125   16.8845   -0.7033 C   0  0  0  0  0  0  0  0  0  0  0  0
   15.0244   17.2529    0.4481 C   0  0  0  0  0  0  0  0  0  0  0  0
   13.5842   16.8337    0.4483 C   0  0  0  0  0  0  0  0  0  0  0  0
   10.9329   14.7361    0.3087 C   0  0  0  0  0  0  0  0  0  0  0  0
   11.5988   14.1079    1.4969 C   0  0  0  0  0  0  0  0  0  0  0  0
   13.0956   14.0791    1.5898 C   0  0  0  0  0  0  0  0  0  0  0  0
   13.7614   13.4509    2.7780 C   0  0  0  0  0  0  0  0  0  0  0  0
   12.9304   12.8513    3.8734 C   0  0  0  0  0  0  0  0  0  0  0  0
   13.5963   12.2230    5.0617 F   0  0  0  0  0  0  0  0  0  0  0  0
   11.4335   12.8800    3.7806 C   0  0  0  0  0  0  0  0  0  0  0  0
   10.7678   13.5083    2.5923 C   0  0  0  0  0  0  0  0  0  0  0  0
    9.4914   14.5837   -0.0771 N   0  0  0  0  0  0  0  0  0  0  0  0
    8.4626   13.7764    0.6576 C   0  0  0  0  0  0  0  0  0  0  0  0
    7.3233   13.1523   -0.0924 C   0  0  0  0  0  0  0  0  0  0  0  0
    6.0046   12.9379    0.5895 C   0  0  0  0  0  0  0  0  0  0  0  0
    5.9642   12.4912    2.0208 O   0  0  0  0  0  0  0  0  0  0  0  0
    4.7262   13.1703   -0.1601 C   0  0  0  0  0  0  0  0  0  0  0  0
    3.5762   12.2216    0.0062 C   0  0  0  0  0  0  0  0  0  0  0  0
    3.0527   11.9107    1.3771 O   0  0  0  0  0  0  0  0  0  0  0  0
    2.9498   11.5840   -1.1984 C   0  0  0  0  0  0  0  0  0  0  0  0
    2.4914   12.4358   -2.3448 C   0  0  0  0  0  0  0  0  0  0  0  0
    2.3049   13.9119   -2.1547 O   0  0  0  0  0  0  0  0  0  0  0  0
    2.2194   11.8114   -3.6812 O   0  0  0  0  0  0  0  0  0  0  0  0
  1  2  1  0  0  0  0
  2  3  1  0  0  0  0
  2  4  1  0  0  0  0
  4  5  2  0  0  0  0
  5  6  1  0  0  0  0
  6  7  2  0  0  0  0
  6  8  1  0  0  0  0
  8  9  1  0  0  0  0
  9 10  2  0  0  0  0
 10 11  1  0  0  0  0
 11 12  2  0  0  0  0
 12 13  1  0  0  0  0
 13 14  2  0  0  0  0
  5 15  1  0  0  0  0
 15 16  1  0  0  0  0
 16 17  2  0  0  0  0
 17 18  1  0  0  0  0
 18 19  2  0  0  0  0
 19 20  1  0  0  0  0
 20 21  2  0  0  0  0
 15 22  2  0  0  0  0
 22 23  1  0  0  0  0
 23 24  2  0  0  0  0
 24 25  1  0  0  0  0
 25 26  2  0  0  0  0
 26 27  1  0  0  0  0
 26 28  1  0  0  0  0
 28 29  2  0  0  0  0
 22 30  1  0  0  0  0
 30 31  1  0  0  0  0
 31 32  1  0  0  0  0
 32 33  1  0  0  0  0
 33 34  1  0  0  0  0
 33 35  1  0  0  0  0
 35 36  1  0  0  0  0
 36 37  1  0  0  0  0
 36 38  1  0  0  0  0
 38 39  1  0  0  0  0
 39 40  2  0  0  0  0
 39 41  1  0  0  0  0
 30  4  1  0  0  0  0
 14  9  1  0  0  0  0
 21 16  1  0  0  0  0
 29 23  1  0  0  0  0
M  END
> <Gold.Version>
2024.1.0

> <Gold.Id.Protein>
6Q9L|6Q9L_protein|mol2

> <Gold.PLP.Fitness>
65.5135

> <Gold.PLP.PLP>
-60.3132

> <Gold.PLP.part.hbond>
-3.0000

> <Gold.PLP.part.metal>
0.0000

> <Gold.PLP.part.buried>
-2.8781

> <Gold.PLP.part.nonpolar>
-56.0001

> <Gold.PLP.part.repulsive>
0.2382

> <Gold.PLP.ligand.clash>
0.0684

> <Gold.PLP.ligand.torsion>
5.0629

> <Gold.PLP.Chemscore.Hbond>
3.1315

> <Gold.PLP.Chemscore.CHOScore>
0.0000

> <Gold.PLP.Chemscore.Metal>
0.0000

> <Gold.Chemscore.Hbonds>
donor molecule, donor type, donor heavy atom, donor atom, acceptor molecule, acceptor atom, score
      P1  H     9  1929       L1    37  0.30
      P1  H   623  2515       L1    41  2.00
      P1  H   642  3253       L1    34  0.83

> <Gold.PLP.Chemscore.Internal.Correction>
5.9999

> <Gold.Protein.RotatedTorsions>
[ 1932    1    2    3 ] final  -34.93 input   60.00 | X-H torsion
[ 1726  314  313  311 ] final   56.77 input -140.00 | X-H torsion
[ 1619  347  346  344 ] final  172.89 input  180.00 | X-H torsion
[ 1600  369  368  365 ] final   60.92 input  -80.00 | X-H torsion
[ 2112  410  409  407 ] final  -88.97 input   -0.00 | X-H torsion
[ 2483  607  606  603 ] final  -49.24 input  170.00 | X-H torsion
[ 2515  623  622  621 ] final   34.84 input   70.00 | X-H torsion

> <Gold.Protein.ActiveResidues>
 GLN18   LEU54   PHE55   TYR56   LEU57   GLY58   GLN59   TYR60   ILE61   MET62  
 THR63   TYR67   GLN72   HIS73   ILE74   VAL75   PHE91   SER92   VAL93   LYS94  
 GLU95   HIS96   ILE99  

> <Gold.Protein.RotatedAtoms>
   24.8383   15.1705    3.4091 H   0  0  0  0  0  0  0  0  0  0  0  0  # atno 1600 bound_to 369 
   25.1149    7.0541    3.8192 H   0  0  0  0  0  0  0  0  0  0  0  0  # atno 1619 bound_to 347 
   20.3550   18.5719   14.9393 H   0  0  0  0  0  0  0  0  0  0  0  0  # atno 1726 bound_to 314 
    0.2818   10.4233    8.6715 H   0  0  0  0  0  0  0  0  0  0  0  0  # atno 1932 bound_to 1   
    0.1187   10.7088    7.0468 H   0  0  0  0  0  0  0  0  0  0  0  0  # atno 1933 bound_to 1   
   19.9948   17.9711   -4.3865 H   0  0  0  0  0  0  0  0  0  0  0  0  # atno 2112 bound_to 410 
    8.4644    7.6748   -1.9652 H   0  0  0  0  0  0  0  0  0  0  0  0  # atno 2483 bound_to 607 
    3.8622   11.6515   -4.9769 H   0  0  0  0  0  0  0  0  0  0  0  0  # atno 2515 bound_to 623 
    5.1098   11.3452   -6.0243 H   0  0  0  0  0  0  0  0  0  0  0  0  # atno 2516 bound_to 623 
    4.7892   12.9005   -5.5496 H   0  0  0  0  0  0  0  0  0  0  0  0  # atno 2517 bound_to 623 
    1.5848   10.8759    7.7745 LP  0  0  0  0  0  0  0  0  0  0  0  0  # atno 3256 bound_to 1   
   21.5643   17.7077   15.6016 LP  0  0  0  0  0  0  0  0  0  0  0  0  # atno 3267 bound_to 314 
   20.0646   17.6450   16.2448 LP  0  0  0  0  0  0  0  0  0  0  0  0  # atno 3268 bound_to 314 
   25.9105    7.1737    5.2336 LP  0  0  0  0  0  0  0  0  0  0  0  0  # atno 3279 bound_to 347 
   26.3343    8.1206    3.9725 LP  0  0  0  0  0  0  0  0  0  0  0  0  # atno 3280 bound_to 347 
   23.3623   15.4848    4.0178 LP  0  0  0  0  0  0  0  0  0  0  0  0  # atno 3287 bound_to 369 
   24.6976   16.0281    4.7849 LP  0  0  0  0  0  0  0  0  0  0  0  0  # atno 3288 bound_to 369 
   19.2147   18.2691   -2.9899 LP  0  0  0  0  0  0  0  0  0  0  0  0  # atno 3291 bound_to 410 
   18.4844   18.5759   -4.4179 LP  0  0  0  0  0  0  0  0  0  0  0  0  # atno 3292 bound_to 410 
    7.5170    7.1333   -3.1724 LP  0  0  0  0  0  0  0  0  0  0  0  0  # atno 3308 bound_to 607 
    8.8377    8.0330   -3.5080 LP  0  0  0  0  0  0  0  0  0  0  0  0  # atno 3309 bound_to 607 

$$$$
