MEPPEP|meppep|sdf|1|dock7
  -GOLD-   6242416 73D 1   1.00000     0.00000

 33 36  0  0  0  0  0  0  0  0  1 V2000
    5.7141   12.2517    1.7024 C   0  0  0  0  0  0  0  0  0  0  0  0
    6.8775   12.4020    0.7676 O   0  0  0  0  0  0  0  0  0  0  0  0
    7.1516   13.7260    0.1181 C   0  0  0  0  0  0  0  0  0  0  0  0
    7.1211   14.9831    0.9357 C   0  0  0  0  0  0  0  0  0  0  0  0
    7.3952   16.3071    0.2862 C   0  0  0  0  0  0  0  0  0  0  0  0
    7.6996   16.3740   -1.1811 C   0  0  0  0  0  0  0  0  0  0  0  0
    7.7300   15.1168   -1.9987 C   0  0  0  0  0  0  0  0  0  0  0  0
    8.0344   15.1836   -3.4660 C   0  0  0  0  0  0  0  0  0  0  0  0
    7.0544   14.9663   -4.5806 C   0  0  0  0  0  0  0  0  0  0  0  0
    7.7865   15.1278   -5.8798 C   0  0  0  0  0  0  0  0  0  0  0  0
    7.1907   14.9954   -7.2500 N   0  0  0  0  0  0  0  0  0  0  0  0
    5.9613   15.7749   -7.6118 C   0  0  0  0  0  0  0  0  0  0  0  0
    5.4539   16.8450   -6.6912 C   0  0  0  0  0  0  0  0  0  0  0  0
    5.2393   15.4844   -8.8941 C   0  0  0  0  0  0  0  0  0  0  0  0
    4.4064   16.5493   -9.5437 C   0  0  0  0  0  0  0  0  0  0  0  0
    3.6844   16.2588  -10.8261 C   0  0  0  0  0  0  0  0  0  0  0  0
    3.7954   14.9033  -11.4586 C   0  0  0  0  0  0  0  0  0  0  0  0
    4.6283   13.8383  -10.8090 C   0  0  0  0  0  0  0  0  0  0  0  0
    5.3503   14.1289   -9.5267 C   0  0  0  0  0  0  0  0  0  0  0  0
    9.2191   15.4450   -5.5681 C   0  0  0  0  0  0  0  0  0  0  0  0
   10.3075   15.6855   -6.5720 O   0  0  0  0  0  0  0  0  0  0  0  0
    9.3723   15.4795   -4.0764 N   0  0  0  0  0  0  0  0  0  0  0  0
   10.6407   15.7606   -3.3266 C   0  0  0  0  0  0  0  0  0  0  0  0
   10.8633   15.1509   -1.9742 C   0  0  0  0  0  0  0  0  0  0  0  0
   12.1317   15.4319   -1.2245 C   0  0  0  0  0  0  0  0  0  0  0  0
   13.1775   16.3226   -1.8269 C   0  0  0  0  0  0  0  0  0  0  0  0
   14.4459   16.6036   -1.0772 C   0  0  0  0  0  0  0  0  0  0  0  0
   15.7143   16.8846   -0.3275 F   0  0  0  0  0  0  0  0  0  0  0  0
   14.8853   15.1851   -1.2889 F   0  0  0  0  0  0  0  0  0  0  0  0
   14.0065   18.0221   -0.8655 F   0  0  0  0  0  0  0  0  0  0  0  0
   12.9549   16.9322   -3.1793 C   0  0  0  0  0  0  0  0  0  0  0  0
   11.6865   16.6512   -3.9290 C   0  0  0  0  0  0  0  0  0  0  0  0
    7.4560   13.7928   -1.3492 C   0  0  0  0  0  0  0  0  0  0  0  0
  1  2  1  0  0  0  0
  2  3  1  0  0  0  0
  3  4  2  0  0  0  0
  4  5  1  0  0  0  0
  5  6  2  0  0  0  0
  6  7  1  0  0  0  0
  8  7  1  0  0  0  0
  8  9  1  0  0  0  0
  9 10  1  0  0  0  0
 10 11  1  0  0  0  0
 11 12  1  0  0  0  0
 12 13  1  0  0  0  0
 12 14  1  0  0  0  0
 14 15  2  0  0  0  0
 15 16  1  0  0  0  0
 16 17  2  0  0  0  0
 17 18  1  0  0  0  0
 18 19  2  0  0  0  0
 10 20  1  0  0  0  0
 20 21  2  0  0  0  0
 20 22  1  0  0  0  0
 22 23  1  0  0  0  0
 23 24  2  0  0  0  0
 24 25  1  0  0  0  0
 25 26  2  0  0  0  0
 26 27  1  0  0  0  0
 27 28  1  0  0  0  0
 27 29  1  0  0  0  0
 27 30  1  0  0  0  0
 26 31  1  0  0  0  0
 31 32  2  0  0  0  0
  7 33  2  0  0  0  0
 33  3  1  0  0  0  0
 22  8  1  0  0  0  0
 32 23  1  0  0  0  0
 19 14  1  0  0  0  0
M  END
> <Gold.Version>
2024.1.0

> <Gold.Id.Protein>
6Q9L|6Q9L_protein|mol2

> <Gold.PLP.Fitness>
40.3931

> <Gold.PLP.PLP>
-40.3172

> <Gold.PLP.part.hbond>
-1.0000

> <Gold.PLP.part.metal>
0.0000

> <Gold.PLP.part.buried>
-2.3259

> <Gold.PLP.part.nonpolar>
-38.0464

> <Gold.PLP.part.repulsive>
0.2871

> <Gold.PLP.ligand.clash>
0.0000

> <Gold.PLP.ligand.torsion>
2.9108

> <Gold.PLP.Chemscore.Hbond>
0.7200

> <Gold.PLP.Chemscore.CHOScore>
0.0000

> <Gold.PLP.Chemscore.Metal>
0.0000

> <Gold.Chemscore.Hbonds>
donor molecule, donor type, donor heavy atom, donor atom, acceptor molecule, acceptor atom, score
      P1  H   446  2149       L1    21  0.72

> <Gold.PLP.Chemscore.Internal.Correction>
3.7375

> <Gold.Protein.RotatedTorsions>
[ 1932    1    2    3 ] final  105.77 input   60.00 | X-H torsion
[ 1726  314  313  311 ] final  175.30 input -140.00 | X-H torsion
[ 1619  347  346  344 ] final -165.05 input  180.00 | X-H torsion
[ 1600  369  368  365 ] final   -2.92 input  -80.00 | X-H torsion
[ 2112  410  409  407 ] final  -90.55 input   -0.00 | X-H torsion
[ 2483  607  606  603 ] final  167.34 input  170.00 | X-H torsion
[ 2515  623  622  621 ] final   73.72 input   70.00 | X-H torsion

> <Gold.Protein.ActiveResidues>
 GLN18   LEU54   PHE55   TYR56   LEU57   GLY58   GLN59   TYR60   ILE61   MET62  
 THR63   TYR67   GLN72   HIS73   ILE74   VAL75   PHE91   SER92   VAL93   LYS94  
 GLU95   HIS96   ILE99  

> <Gold.Protein.RotatedAtoms>
   23.8506   15.1095    3.3829 H   0  0  0  0  0  0  0  0  0  0  0  0  # atno 1600 bound_to 369 
   25.2551    7.2869    3.5858 H   0  0  0  0  0  0  0  0  0  0  0  0  # atno 1619 bound_to 347 
   20.0507   17.6585   16.2288 H   0  0  0  0  0  0  0  0  0  0  0  0  # atno 1726 bound_to 314 
    1.5041   10.9285    7.4467 H   0  0  0  0  0  0  0  0  0  0  0  0  # atno 1932 bound_to 1   
    0.6084   10.4751    8.7657 H   0  0  0  0  0  0  0  0  0  0  0  0  # atno 1933 bound_to 1   
   20.0060   17.9663   -4.3639 H   0  0  0  0  0  0  0  0  0  0  0  0  # atno 2112 bound_to 410 
    7.6705    7.2550   -3.4997 H   0  0  0  0  0  0  0  0  0  0  0  0  # atno 2483 bound_to 607 
    3.9065   12.2848   -4.9245 H   0  0  0  0  0  0  0  0  0  0  0  0  # atno 2515 bound_to 623 
    4.6581   11.0300   -5.7044 H   0  0  0  0  0  0  0  0  0  0  0  0  # atno 2516 bound_to 623 
    5.1965   12.5824   -5.9218 H   0  0  0  0  0  0  0  0  0  0  0  0  # atno 2517 bound_to 623 
   -0.1019   10.6084    7.2877 LP  0  0  0  0  0  0  0  0  0  0  0  0  # atno 3256 bound_to 1   
   20.3757   18.5787   14.9267 LP  0  0  0  0  0  0  0  0  0  0  0  0  # atno 3267 bound_to 314 
   21.5597   17.6940   15.6209 LP  0  0  0  0  0  0  0  0  0  0  0  0  # atno 3268 bound_to 314 
   25.6362    6.9616    5.1340 LP  0  0  0  0  0  0  0  0  0  0  0  0  # atno 3279 bound_to 347 
   26.4674    8.0982    4.3071 LP  0  0  0  0  0  0  0  0  0  0  0  0  # atno 3280 bound_to 347 
   23.8120   15.9734    4.7614 LP  0  0  0  0  0  0  0  0  0  0  0  0  # atno 3287 bound_to 369 
   25.2426   15.6009    4.0677 LP  0  0  0  0  0  0  0  0  0  0  0  0  # atno 3288 bound_to 369 
   19.1907   18.2787   -2.9907 LP  0  0  0  0  0  0  0  0  0  0  0  0  # atno 3291 bound_to 410 
   18.4972   18.5711   -4.4399 LP  0  0  0  0  0  0  0  0  0  0  0  0  # atno 3292 bound_to 410 
    9.0086    8.1234   -3.1777 LP  0  0  0  0  0  0  0  0  0  0  0  0  # atno 3308 bound_to 607 
    8.1454    7.4656   -1.9575 LP  0  0  0  0  0  0  0  0  0  0  0  0  # atno 3309 bound_to 607 

$$$$
