MEPPEP|meppep|sdf|1|dock1
  -GOLD-   6242416 73D 1   1.00000     0.00000

 33 36  0  0  0  0  0  0  0  0  1 V2000
    4.7529   12.6976    2.1753 C   0  0  0  0  0  0  0  0  0  0  0  0
    6.1224   12.5347    1.5856 O   0  0  0  0  0  0  0  0  0  0  0  0
    6.8321   13.7188    0.9989 C   0  0  0  0  0  0  0  0  0  0  0  0
    7.2741   14.8439    1.8870 C   0  0  0  0  0  0  0  0  0  0  0  0
    7.9838   16.0281    1.3003 C   0  0  0  0  0  0  0  0  0  0  0  0
    8.2515   16.0870   -0.1744 C   0  0  0  0  0  0  0  0  0  0  0  0
    7.8095   14.9619   -1.0625 C   0  0  0  0  0  0  0  0  0  0  0  0
    8.0772   15.0208   -2.5373 C   0  0  0  0  0  0  0  0  0  0  0  0
    7.0538   14.8832   -3.6253 C   0  0  0  0  0  0  0  0  0  0  0  0
    7.7593   15.0050   -4.9434 C   0  0  0  0  0  0  0  0  0  0  0  0
    7.1180   14.9276   -6.2971 N   0  0  0  0  0  0  0  0  0  0  0  0
    7.8260   15.4869   -7.4955 C   0  0  0  0  0  0  0  0  0  0  0  0
    8.6015   16.7655   -7.3792 C   0  0  0  0  0  0  0  0  0  0  0  0
    7.7583   14.7675   -8.8100 C   0  0  0  0  0  0  0  0  0  0  0  0
    6.8146   13.6151   -8.9867 C   0  0  0  0  0  0  0  0  0  0  0  0
    6.7469   12.8958  -10.3012 C   0  0  0  0  0  0  0  0  0  0  0  0
    7.6230   13.3289  -11.4390 C   0  0  0  0  0  0  0  0  0  0  0  0
    8.5668   14.4814  -11.2624 C   0  0  0  0  0  0  0  0  0  0  0  0
    8.6344   15.2007   -9.9478 C   0  0  0  0  0  0  0  0  0  0  0  0
    9.2188   15.2179   -4.6699 C   0  0  0  0  0  0  0  0  0  0  0  0
   10.2932   15.3908   -5.7024 O   0  0  0  0  0  0  0  0  0  0  0  0
    9.4152   15.2277   -3.1829 N   0  0  0  0  0  0  0  0  0  0  0  0
   10.7205   15.4120   -2.4672 C   0  0  0  0  0  0  0  0  0  0  0  0
   10.9177   14.8206   -1.1028 C   0  0  0  0  0  0  0  0  0  0  0  0
   12.2230   15.0049   -0.3871 C   0  0  0  0  0  0  0  0  0  0  0  0
   13.3311   15.7805   -1.0357 C   0  0  0  0  0  0  0  0  0  0  0  0
   14.6364   15.9648   -0.3200 C   0  0  0  0  0  0  0  0  0  0  0  0
   15.9417   16.1490    0.3956 F   0  0  0  0  0  0  0  0  0  0  0  0
   15.2973   15.0236   -1.2831 F   0  0  0  0  0  0  0  0  0  0  0  0
   13.9755   16.9059    0.6430 F   0  0  0  0  0  0  0  0  0  0  0  0
   13.1338   16.3718   -2.4001 C   0  0  0  0  0  0  0  0  0  0  0  0
   11.8285   16.1875   -3.1157 C   0  0  0  0  0  0  0  0  0  0  0  0
    7.0998   13.7778   -0.4758 C   0  0  0  0  0  0  0  0  0  0  0  0
  1  2  1  0  0  0  0
  2  3  1  0  0  0  0
  3  4  2  0  0  0  0
  4  5  1  0  0  0  0
  5  6  2  0  0  0  0
  6  7  1  0  0  0  0
  8  7  1  0  0  0  0
  8  9  1  0  0  0  0
  9 10  1  0  0  0  0
 10 11  1  0  0  0  0
 11 12  1  0  0  0  0
 12 13  1  0  0  0  0
 12 14  1  0  0  0  0
 14 15  2  0  0  0  0
 15 16  1  0  0  0  0
 16 17  2  0  0  0  0
 17 18  1  0  0  0  0
 18 19  2  0  0  0  0
 10 20  1  0  0  0  0
 20 21  2  0  0  0  0
 20 22  1  0  0  0  0
 22 23  1  0  0  0  0
 23 24  2  0  0  0  0
 24 25  1  0  0  0  0
 25 26  2  0  0  0  0
 26 27  1  0  0  0  0
 27 28  1  0  0  0  0
 27 29  1  0  0  0  0
 27 30  1  0  0  0  0
 26 31  1  0  0  0  0
 31 32  2  0  0  0  0
  7 33  2  0  0  0  0
 33  3  1  0  0  0  0
 22  8  1  0  0  0  0
 32 23  1  0  0  0  0
 19 14  1  0  0  0  0
M  END
> <Gold.Version>
2024.1.0

> <Gold.Id.Protein>
6Q9L|6Q9L_protein|mol2

> <Gold.PLP.Fitness>
54.8758

> <Gold.PLP.PLP>
-54.3912

> <Gold.PLP.part.hbond>
-2.5713

> <Gold.PLP.part.metal>
0.0000

> <Gold.PLP.part.buried>
-2.3575

> <Gold.PLP.part.nonpolar>
-51.0453

> <Gold.PLP.part.repulsive>
0.2801

> <Gold.PLP.ligand.clash>
0.0000

> <Gold.PLP.ligand.torsion>
2.1296

> <Gold.PLP.Chemscore.Hbond>
0.3354

> <Gold.PLP.Chemscore.CHOScore>
0.0000

> <Gold.PLP.Chemscore.Metal>
0.0000

> <Gold.Chemscore.Hbonds>
donor molecule, donor type, donor heavy atom, donor atom, acceptor molecule, acceptor atom, score
      P1  H   642  3253       L1     2  0.34

> <Gold.PLP.Chemscore.Internal.Correction>
3.7375

> <Gold.Protein.RotatedTorsions>
[ 1932    1    2    3 ] final  153.94 input   60.00 | X-H torsion
[ 1726  314  313  311 ] final  -45.03 input -140.00 | X-H torsion
[ 1619  347  346  344 ] final  129.39 input  180.00 | X-H torsion
[ 1600  369  368  365 ] final  109.00 input  -80.00 | X-H torsion
[ 2112  410  409  407 ] final  104.97 input   -0.00 | X-H torsion
[ 2483  607  606  603 ] final -142.37 input  170.00 | X-H torsion
[ 2515  623  622  621 ] final   26.31 input   70.00 | X-H torsion

> <Gold.Protein.ActiveResidues>
 GLN18   LEU54   PHE55   TYR56   LEU57   GLY58   GLN59   TYR60   ILE61   MET62  
 THR63   TYR67   GLN72   HIS73   ILE74   VAL75   PHE91   SER92   VAL93   LYS94  
 GLU95   HIS96   ILE99  

> <Gold.Protein.RotatedAtoms>
   25.2295   15.5320    3.9551 H   0  0  0  0  0  0  0  0  0  0  0  0  # atno 1600 bound_to 369 
   25.1314    6.7890    4.4602 H   0  0  0  0  0  0  0  0  0  0  0  0  # atno 1619 bound_to 347 
   21.5642   17.8882   15.3654 H   0  0  0  0  0  0  0  0  0  0  0  0  # atno 1726 bound_to 314 
    0.9140   10.9021    6.9358 H   0  0  0  0  0  0  0  0  0  0  0  0  # atno 1932 bound_to 1   
    1.3238   10.6766    8.5260 H   0  0  0  0  0  0  0  0  0  0  0  0  # atno 1933 bound_to 1   
   18.5936   18.5175   -3.2946 H   0  0  0  0  0  0  0  0  0  0  0  0  # atno 2112 bound_to 410 
    7.5078    7.0940   -2.7377 H   0  0  0  0  0  0  0  0  0  0  0  0  # atno 2483 bound_to 607 
    3.8977   11.5217   -5.0235 H   0  0  0  0  0  0  0  0  0  0  0  0  # atno 2515 bound_to 623 
    5.1835   11.4591   -6.0677 H   0  0  0  0  0  0  0  0  0  0  0  0  # atno 2516 bound_to 623 
    4.6800   12.9164   -5.4595 H   0  0  0  0  0  0  0  0  0  0  0  0  # atno 2517 bound_to 623 
   -0.2254   10.4359    8.0272 LP  0  0  0  0  0  0  0  0  0  0  0  0  # atno 3256 bound_to 1   
   20.3128   17.5047   16.3323 LP  0  0  0  0  0  0  0  0  0  0  0  0  # atno 3267 bound_to 314 
   20.0983   18.5366   15.0849 LP  0  0  0  0  0  0  0  0  0  0  0  0  # atno 3268 bound_to 314 
   26.3621    7.6746    5.0510 LP  0  0  0  0  0  0  0  0  0  0  0  0  # atno 3279 bound_to 347 
   25.8661    7.8866    3.5096 LP  0  0  0  0  0  0  0  0  0  0  0  0  # atno 3280 bound_to 347 
   23.7358   15.1392    3.4424 LP  0  0  0  0  0  0  0  0  0  0  0  0  # atno 3287 bound_to 369 
   23.9301   16.0096    4.8104 LP  0  0  0  0  0  0  0  0  0  0  0  0  # atno 3288 bound_to 369 
   19.0406   18.3590   -4.8512 LP  0  0  0  0  0  0  0  0  0  0  0  0  # atno 3291 bound_to 410 
   20.0697   17.9357   -3.6561 LP  0  0  0  0  0  0  0  0  0  0  0  0  # atno 3292 bound_to 410 
    8.5296    7.8459   -3.7569 LP  0  0  0  0  0  0  0  0  0  0  0  0  # atno 3308 bound_to 607 
    8.7883    7.9053   -2.1456 LP  0  0  0  0  0  0  0  0  0  0  0  0  # atno 3309 bound_to 607 

$$$$
