MEPPEP|meppep|sdf|1|dock2
  -GOLD-   6242416 73D 1   1.00000     0.00000

 33 36  0  0  0  0  0  0  0  0  1 V2000
    8.8826   12.9847    2.7764 C   0  0  0  0  0  0  0  0  0  0  0  0
    7.8961   12.9116    1.6488 O   0  0  0  0  0  0  0  0  0  0  0  0
    7.6665   14.1085    0.7744 C   0  0  0  0  0  0  0  0  0  0  0  0
    7.1790   15.3937    1.3750 C   0  0  0  0  0  0  0  0  0  0  0  0
    6.9494   16.5906    0.5006 C   0  0  0  0  0  0  0  0  0  0  0  0
    7.2071   16.5024   -0.9744 C   0  0  0  0  0  0  0  0  0  0  0  0
    7.6945   15.2173   -1.5750 C   0  0  0  0  0  0  0  0  0  0  0  0
    7.9523   15.1291   -3.0501 C   0  0  0  0  0  0  0  0  0  0  0  0
    6.9424   14.7780   -4.1022 C   0  0  0  0  0  0  0  0  0  0  0  0
    7.6311   14.8083   -5.4344 C   0  0  0  0  0  0  0  0  0  0  0  0
    6.9958   14.5196   -6.7621 N   0  0  0  0  0  0  0  0  0  0  0  0
    6.4591   15.6441   -7.5972 C   0  0  0  0  0  0  0  0  0  0  0  0
    6.8856   17.0549   -7.3185 C   0  0  0  0  0  0  0  0  0  0  0  0
    5.4960   15.3579   -8.7110 C   0  0  0  0  0  0  0  0  0  0  0  0
    4.9303   13.9786   -8.8774 C   0  0  0  0  0  0  0  0  0  0  0  0
    3.9672   13.6924   -9.9912 C   0  0  0  0  0  0  0  0  0  0  0  0
    3.5698   14.7854  -10.9384 C   0  0  0  0  0  0  0  0  0  0  0  0
    4.1354   16.1646  -10.7720 C   0  0  0  0  0  0  0  0  0  0  0  0
    5.0986   16.4509   -9.6582 C   0  0  0  0  0  0  0  0  0  0  0  0
    9.0667   15.1782   -5.2056 C   0  0  0  0  0  0  0  0  0  0  0  0
   10.1190   15.3242   -6.2646 O   0  0  0  0  0  0  0  0  0  0  0  0
    9.2652   15.3764   -3.7321 N   0  0  0  0  0  0  0  0  0  0  0  0
   10.5509   15.7555   -3.0588 C   0  0  0  0  0  0  0  0  0  0  0  0
   10.8284   15.2946   -1.6586 C   0  0  0  0  0  0  0  0  0  0  0  0
   12.1141   15.6736   -0.9853 C   0  0  0  0  0  0  0  0  0  0  0  0
   13.1223   16.5135   -1.7121 C   0  0  0  0  0  0  0  0  0  0  0  0
   14.4079   16.8925   -1.0388 C   0  0  0  0  0  0  0  0  0  0  0  0
   15.6936   17.2715   -0.3656 F   0  0  0  0  0  0  0  0  0  0  0  0
   15.1652   16.0146   -1.9906 F   0  0  0  0  0  0  0  0  0  0  0  0
   13.6507   17.7704   -0.0870 F   0  0  0  0  0  0  0  0  0  0  0  0
   12.8447   16.9744   -3.1123 C   0  0  0  0  0  0  0  0  0  0  0  0
   11.5590   16.5953   -3.7856 C   0  0  0  0  0  0  0  0  0  0  0  0
    7.9242   14.0204   -0.7006 C   0  0  0  0  0  0  0  0  0  0  0  0
  1  2  1  0  0  0  0
  2  3  1  0  0  0  0
  3  4  2  0  0  0  0
  4  5  1  0  0  0  0
  5  6  2  0  0  0  0
  6  7  1  0  0  0  0
  8  7  1  0  0  0  0
  8  9  1  0  0  0  0
  9 10  1  0  0  0  0
 10 11  1  0  0  0  0
 11 12  1  0  0  0  0
 12 13  1  0  0  0  0
 12 14  1  0  0  0  0
 14 15  2  0  0  0  0
 15 16  1  0  0  0  0
 16 17  2  0  0  0  0
 17 18  1  0  0  0  0
 18 19  2  0  0  0  0
 10 20  1  0  0  0  0
 20 21  2  0  0  0  0
 20 22  1  0  0  0  0
 22 23  1  0  0  0  0
 23 24  2  0  0  0  0
 24 25  1  0  0  0  0
 25 26  2  0  0  0  0
 26 27  1  0  0  0  0
 27 28  1  0  0  0  0
 27 29  1  0  0  0  0
 27 30  1  0  0  0  0
 26 31  1  0  0  0  0
 31 32  2  0  0  0  0
  7 33  2  0  0  0  0
 33  3  1  0  0  0  0
 22  8  1  0  0  0  0
 32 23  1  0  0  0  0
 19 14  1  0  0  0  0
M  END
> <Gold.Version>
2024.1.0

> <Gold.Id.Protein>
6Q9L|6Q9L_protein|mol2

> <Gold.PLP.Fitness>
39.2601

> <Gold.PLP.PLP>
-40.3862

> <Gold.PLP.part.hbond>
-1.0000

> <Gold.PLP.part.metal>
0.0000

> <Gold.PLP.part.buried>
-5.6901

> <Gold.PLP.part.nonpolar>
-34.2073

> <Gold.PLP.part.repulsive>
0.3175

> <Gold.PLP.ligand.clash>
0.0000

> <Gold.PLP.ligand.torsion>
2.9153

> <Gold.PLP.Chemscore.Hbond>
0.3224

> <Gold.PLP.Chemscore.CHOScore>
0.0000

> <Gold.PLP.Chemscore.Metal>
0.0000

> <Gold.Chemscore.Hbonds>
donor molecule, donor type, donor heavy atom, donor atom, acceptor molecule, acceptor atom, score
      P1  H   446  2149       L1    21  0.32

> <Gold.PLP.Chemscore.Internal.Correction>
3.7375

> <Gold.Protein.RotatedTorsions>
[ 1932    1    2    3 ] final  -12.61 input   60.00 | X-H torsion
[ 1726  314  313  311 ] final  -34.16 input -140.00 | X-H torsion
[ 1619  347  346  344 ] final  -18.66 input  180.00 | X-H torsion
[ 1600  369  368  365 ] final  164.31 input  -80.00 | X-H torsion
[ 2112  410  409  407 ] final  -70.87 input   -0.00 | X-H torsion
[ 2483  607  606  603 ] final -169.60 input  170.00 | X-H torsion
[ 2515  623  622  621 ] final -169.82 input   70.00 | X-H torsion

> <Gold.Protein.ActiveResidues>
 GLN18   LEU54   PHE55   TYR56   LEU57   GLY58   GLN59   TYR60   ILE61   MET62  
 THR63   TYR67   GLN72   HIS73   ILE74   VAL75   PHE91   SER92   VAL93   LYS94  
 GLU95   HIS96   ILE99  

> <Gold.Protein.RotatedAtoms>
   24.9208   15.9551    4.6487 H   0  0  0  0  0  0  0  0  0  0  0  0  # atno 1600 bound_to 369 
   26.4882    7.9457    4.7076 H   0  0  0  0  0  0  0  0  0  0  0  0  # atno 1619 bound_to 347 
   21.5248   18.0014   15.2346 H   0  0  0  0  0  0  0  0  0  0  0  0  # atno 1726 bound_to 314 
    0.6348   10.4803    8.7681 H   0  0  0  0  0  0  0  0  0  0  0  0  # atno 1932 bound_to 1   
   -0.1288   10.6050    7.3021 H   0  0  0  0  0  0  0  0  0  0  0  0  # atno 1933 bound_to 1   
   19.8270   18.0405   -4.6184 H   0  0  0  0  0  0  0  0  0  0  0  0  # atno 2112 bound_to 410 
    7.5249    7.1359   -3.1760 H   0  0  0  0  0  0  0  0  0  0  0  0  # atno 2483 bound_to 607 
    5.1686   12.6260   -5.8933 H   0  0  0  0  0  0  0  0  0  0  0  0  # atno 2515 bound_to 623 
    3.8886   12.2289   -4.9179 H   0  0  0  0  0  0  0  0  0  0  0  0  # atno 2516 bound_to 623 
    4.7039   11.0424   -5.7394 H   0  0  0  0  0  0  0  0  0  0  0  0  # atno 2517 bound_to 623 
    1.4808   10.9219    7.4279 LP  0  0  0  0  0  0  0  0  0  0  0  0  # atno 3256 bound_to 1   
   20.4795   17.4427   16.3495 LP  0  0  0  0  0  0  0  0  0  0  0  0  # atno 3267 bound_to 314 
   19.9714   18.4846   15.1994 LP  0  0  0  0  0  0  0  0  0  0  0  0  # atno 3268 bound_to 314 
   25.5217    7.5930    3.4468 LP  0  0  0  0  0  0  0  0  0  0  0  0  # atno 3279 bound_to 347 
   25.3401    6.8033    4.8646 LP  0  0  0  0  0  0  0  0  0  0  0  0  # atno 3280 bound_to 347 
   24.5993   15.0926    3.3068 LP  0  0  0  0  0  0  0  0  0  0  0  0  # atno 3287 bound_to 369 
   23.3775   15.6302    4.2475 LP  0  0  0  0  0  0  0  0  0  0  0  0  # atno 3288 bound_to 369 
   19.4877   18.1607   -3.0315 LP  0  0  0  0  0  0  0  0  0  0  0  0  # atno 3291 bound_to 410 
   18.3805   18.6143   -4.1427 LP  0  0  0  0  0  0  0  0  0  0  0  0  # atno 3292 bound_to 410 
    8.8412    8.0349   -3.5036 LP  0  0  0  0  0  0  0  0  0  0  0  0  # atno 3308 bound_to 607 
    8.4595    7.6740   -1.9574 LP  0  0  0  0  0  0  0  0  0  0  0  0  # atno 3309 bound_to 607 

$$$$
