Atorvastatin|atorvastatin|sdf|1|dock4
  -GOLD-   6242416 73D 1   1.00000     0.00000

 41 44  0  0  0  0  0  0  0  0  1 V2000
    1.0485   13.1915   -6.0647 C   0  0  0  0  0  0  0  0  0  0  0  0
    0.8859   11.8673   -6.7503 C   0  0  0  0  0  0  0  0  0  0  0  0
   -0.0102   11.7476   -7.9473 C   0  0  0  0  0  0  0  0  0  0  0  0
    1.6193   10.6629   -6.2390 C   0  0  0  0  0  0  0  0  0  0  0  0
    2.8365   10.0428   -6.8587 C   0  0  0  0  0  0  0  0  0  0  0  0
    3.5338   10.5184   -8.0988 C   0  0  0  0  0  0  0  0  0  0  0  0
    2.7465   10.7800   -9.3485 O   0  0  0  0  0  0  0  0  0  0  0  0
    5.0184   10.7323   -8.0891 N   0  0  0  0  0  0  0  0  0  0  0  0
    5.6515   11.6438   -9.0984 C   0  0  0  0  0  0  0  0  0  0  0  0
    6.0970   13.0175   -8.6931 C   0  0  0  0  0  0  0  0  0  0  0  0
    6.7300   13.9289   -9.7023 C   0  0  0  0  0  0  0  0  0  0  0  0
    6.9175   13.4665  -11.1169 C   0  0  0  0  0  0  0  0  0  0  0  0
    6.4720   12.0928  -11.5222 C   0  0  0  0  0  0  0  0  0  0  0  0
    5.8390   11.1814  -10.5130 C   0  0  0  0  0  0  0  0  0  0  0  0
    3.2338    8.8638   -6.0209 C   0  0  0  0  0  0  0  0  0  0  0  0
    4.3982    7.9534   -6.2759 C   0  0  0  0  0  0  0  0  0  0  0  0
    5.5492    7.9205   -5.3146 C   0  0  0  0  0  0  0  0  0  0  0  0
    6.7136    7.0099   -5.5698 C   0  0  0  0  0  0  0  0  0  0  0  0
    6.7271    6.1323   -6.7862 C   0  0  0  0  0  0  0  0  0  0  0  0
    5.5761    6.1652   -7.7475 C   0  0  0  0  0  0  0  0  0  0  0  0
    4.4117    7.0757   -7.4923 C   0  0  0  0  0  0  0  0  0  0  0  0
    2.2622    8.7552   -4.8832 C   0  0  0  0  0  0  0  0  0  0  0  0
    2.2845    7.7170   -3.8009 C   0  0  0  0  0  0  0  0  0  0  0  0
    1.0167    7.0214   -3.4025 C   0  0  0  0  0  0  0  0  0  0  0  0
    1.0390    5.9832   -2.3202 C   0  0  0  0  0  0  0  0  0  0  0  0
    2.3292    5.6405   -1.6361 C   0  0  0  0  0  0  0  0  0  0  0  0
    2.3515    4.6022   -0.5537 F   0  0  0  0  0  0  0  0  0  0  0  0
    3.5971    6.3360   -2.0344 C   0  0  0  0  0  0  0  0  0  0  0  0
    3.5747    7.3743   -3.1168 C   0  0  0  0  0  0  0  0  0  0  0  0
    1.2644    9.8671   -5.0180 N   0  0  0  0  0  0  0  0  0  0  0  0
    0.1137   10.1359   -4.0940 C   0  0  0  0  0  0  0  0  0  0  0  0
    0.3717   10.5651   -2.6801 C   0  0  0  0  0  0  0  0  0  0  0  0
    1.5171   11.4834   -2.3722 C   0  0  0  0  0  0  0  0  0  0  0  0
    2.3649   12.0243   -3.4852 O   0  0  0  0  0  0  0  0  0  0  0  0
    1.8148   11.8607   -0.9513 C   0  0  0  0  0  0  0  0  0  0  0  0
    3.1125   12.5310   -0.6094 C   0  0  0  0  0  0  0  0  0  0  0  0
    3.3785   13.9318   -1.0752 O   0  0  0  0  0  0  0  0  0  0  0  0
    4.1441   11.8005    0.1982 C   0  0  0  0  0  0  0  0  0  0  0  0
    4.5556   12.3267    1.5413 C   0  0  0  0  0  0  0  0  0  0  0  0
    3.5241   12.5528    2.6065 O   0  0  0  0  0  0  0  0  0  0  0  0
    5.9988   12.6267    1.8191 O   0  0  0  0  0  0  0  0  0  0  0  0
  1  2  1  0  0  0  0
  2  3  1  0  0  0  0
  2  4  1  0  0  0  0
  4  5  2  0  0  0  0
  5  6  1  0  0  0  0
  6  7  2  0  0  0  0
  6  8  1  0  0  0  0
  8  9  1  0  0  0  0
  9 10  2  0  0  0  0
 10 11  1  0  0  0  0
 11 12  2  0  0  0  0
 12 13  1  0  0  0  0
 13 14  2  0  0  0  0
  5 15  1  0  0  0  0
 15 16  1  0  0  0  0
 16 17  2  0  0  0  0
 17 18  1  0  0  0  0
 18 19  2  0  0  0  0
 19 20  1  0  0  0  0
 20 21  2  0  0  0  0
 15 22  2  0  0  0  0
 22 23  1  0  0  0  0
 23 24  2  0  0  0  0
 24 25  1  0  0  0  0
 25 26  2  0  0  0  0
 26 27  1  0  0  0  0
 26 28  1  0  0  0  0
 28 29  2  0  0  0  0
 22 30  1  0  0  0  0
 30 31  1  0  0  0  0
 31 32  1  0  0  0  0
 32 33  1  0  0  0  0
 33 34  1  0  0  0  0
 33 35  1  0  0  0  0
 35 36  1  0  0  0  0
 36 37  1  0  0  0  0
 36 38  1  0  0  0  0
 38 39  1  0  0  0  0
 39 40  2  0  0  0  0
 39 41  1  0  0  0  0
 30  4  1  0  0  0  0
 14  9  1  0  0  0  0
 21 16  1  0  0  0  0
 29 23  1  0  0  0  0
M  END
> <Gold.Version>
2024.1.0

> <Gold.Id.Protein>
6Q9L|6Q9L_protein|mol2

> <Gold.PLP.Fitness>
50.6027

> <Gold.PLP.PLP>
-41.8343

> <Gold.PLP.part.hbond>
-4.0000

> <Gold.PLP.part.metal>
0.0000

> <Gold.PLP.part.buried>
-4.2176

> <Gold.PLP.part.nonpolar>
-37.0158

> <Gold.PLP.part.repulsive>
0.1171

> <Gold.PLP.ligand.clash>
0.0000

> <Gold.PLP.ligand.torsion>
5.5394

> <Gold.PLP.Chemscore.Hbond>
4.6157

> <Gold.PLP.Chemscore.CHOScore>
0.0000

> <Gold.PLP.Chemscore.Metal>
0.0000

> <Gold.Chemscore.Hbonds>
donor molecule, donor type, donor heavy atom, donor atom, acceptor molecule, acceptor atom, score
      P1  H     9  1929       L1    40  0.73
      P1  H   623  2515       L1    34  1.98
      P1  H   623  2516       L1     8  1.01
      P1  H   642  3253       L1    41  0.89

> <Gold.PLP.Chemscore.Internal.Correction>
5.9999

> <Gold.Protein.RotatedTorsions>
[ 1932    1    2    3 ] final  142.83 input   60.00 | X-H torsion
[ 1726  314  313  311 ] final -149.51 input -140.00 | X-H torsion
[ 1619  347  346  344 ] final  166.98 input  180.00 | X-H torsion
[ 1600  369  368  365 ] final  130.96 input  -80.00 | X-H torsion
[ 2112  410  409  407 ] final  -20.61 input   -0.00 | X-H torsion
[ 2483  607  606  603 ] final   16.15 input  170.00 | X-H torsion
[ 2515  623  622  621 ] final   42.67 input   70.00 | X-H torsion

> <Gold.Protein.ActiveResidues>
 GLN18   LEU54   PHE55   TYR56   LEU57   GLY58   GLN59   TYR60   ILE61   MET62  
 THR63   TYR67   GLN72   HIS73   ILE74   VAL75   PHE91   SER92   VAL93   LYS94  
 GLU95   HIS96   ILE99  

> <Gold.Protein.RotatedAtoms>
   25.2037   15.7208    4.2566 H   0  0  0  0  0  0  0  0  0  0  0  0  # atno 1600 bound_to 369 
   25.0934    7.0003    3.8964 H   0  0  0  0  0  0  0  0  0  0  0  0  # atno 1619 bound_to 347 
   20.5532   17.4241   16.3419 H   0  0  0  0  0  0  0  0  0  0  0  0  # atno 1726 bound_to 314 
    1.0833   10.9244    7.0076 H   0  0  0  0  0  0  0  0  0  0  0  0  # atno 1932 bound_to 1   
    1.1831   10.6248    8.6348 H   0  0  0  0  0  0  0  0  0  0  0  0  # atno 1933 bound_to 1   
   19.1245   18.3232   -4.8609 H   0  0  0  0  0  0  0  0  0  0  0  0  # atno 2112 bound_to 410 
    9.0419    8.1074   -2.6739 H   0  0  0  0  0  0  0  0  0  0  0  0  # atno 2483 bound_to 607 
    3.8437   11.7767   -4.9446 H   0  0  0  0  0  0  0  0  0  0  0  0  # atno 2515 bound_to 623 
    5.0321   11.2528   -5.9745 H   0  0  0  0  0  0  0  0  0  0  0  0  # atno 2516 bound_to 623 
    4.8853   12.8678   -5.6316 H   0  0  0  0  0  0  0  0  0  0  0  0  # atno 2517 bound_to 623 
   -0.2536   10.4649    7.8493 LP  0  0  0  0  0  0  0  0  0  0  0  0  # atno 3256 bound_to 1   
   19.9245   18.4568   15.2529 LP  0  0  0  0  0  0  0  0  0  0  0  0  # atno 3267 bound_to 314 
   21.5049   18.0520   15.1809 LP  0  0  0  0  0  0  0  0  0  0  0  0  # atno 3268 bound_to 314 
   25.9825    7.2388    5.2383 LP  0  0  0  0  0  0  0  0  0  0  0  0  # atno 3279 bound_to 347 
   26.2839    8.1096    3.8901 LP  0  0  0  0  0  0  0  0  0  0  0  0  # atno 3280 bound_to 347 
   24.0588   15.0661    3.3033 LP  0  0  0  0  0  0  0  0  0  0  0  0  # atno 3287 bound_to 369 
   23.6330   15.8926    4.6458 LP  0  0  0  0  0  0  0  0  0  0  0  0  # atno 3288 bound_to 369 
   20.0404   17.9464   -3.5698 LP  0  0  0  0  0  0  0  0  0  0  0  0  # atno 3291 bound_to 410 
   18.5352   18.5440   -3.3602 LP  0  0  0  0  0  0  0  0  0  0  0  0  # atno 3292 bound_to 410 
    7.7621    7.2274   -2.1883 LP  0  0  0  0  0  0  0  0  0  0  0  0  # atno 3308 bound_to 607 
    8.0109    7.5032   -3.7785 LP  0  0  0  0  0  0  0  0  0  0  0  0  # atno 3309 bound_to 607 

$$$$
