91972012
  -OEChem-09092404133D

 82 88  0     1  0  0  0  0  0999 V2000
    6.9492    2.4465    1.9438 Cl  0  0  0  0  0  0  0  0  0  0  0  0
    1.1414    5.2378    0.7192 Cl  0  0  0  0  0  0  0  0  0  0  0  0
    1.3898    2.3760    1.4187 F   0  0  0  0  0  0  0  0  0  0  0  0
    2.2657   -0.7514   -2.8428 O   0  0  0  0  0  0  0  0  0  0  0  0
   -1.5653   -1.6749    0.9371 O   0  0  0  0  0  0  0  0  0  0  0  0
   -7.8975    1.5106    1.2830 O   0  0  0  0  0  0  0  0  0  0  0  0
   -8.3633   -0.7145    1.1163 O   0  0  0  0  0  0  0  0  0  0  0  0
    0.5946   -2.2747   -0.5148 N   0  0  1  0  0  0  0  0  0  0  0  0
   -2.3248   -0.2323   -0.7248 N   0  0  0  0  0  0  0  0  0  0  0  0
    4.0396    0.2760   -1.7347 N   0  0  0  0  0  0  0  0  0  0  0  0
    2.0040   -2.0833   -0.0464 C   0  0  0  0  0  0  0  0  0  0  0  0
    2.2709   -0.5491   -0.3443 C   0  0  1  0  0  0  0  0  0  0  0  0
    0.8740    0.0885   -0.1640 C   0  0  2  0  0  0  0  0  0  0  0  0
   -0.0497   -0.9746   -0.7672 C   0  0  2  0  0  0  0  0  0  0  0  0
    1.8899   -2.4338    1.4792 C   0  0  0  0  0  0  0  0  0  0  0  0
    3.1036   -2.9996   -0.6770 C   0  0  0  0  0  0  0  0  0  0  0  0
   -3.6921   -0.1122   -0.2728 C   0  0  0  0  0  0  0  0  0  0  0  0
    3.3586    0.1605    0.4412 C   0  0  0  0  0  0  0  0  0  0  0  0
    2.8091   -0.3749   -1.8148 C   0  0  0  0  0  0  0  0  0  0  0  0
   -6.1632    0.1089    0.5388 C   0  0  0  0  0  0  0  0  0  0  0  0
    3.1945   -2.9388    2.0954 C   0  0  0  0  0  0  0  0  0  0  0  0
    3.2298   -4.3687   -0.0091 C   0  0  0  0  0  0  0  0  0  0  0  0
   -1.3780   -1.0069   -0.0763 C   0  0  0  0  0  0  0  0  0  0  0  0
   -4.3828   -1.4918   -0.2565 C   0  0  0  0  0  0  0  0  0  0  0  0
   -4.4892    0.8207   -1.2091 C   0  0  0  0  0  0  0  0  0  0  0  0
   -3.7442    0.4759    1.1533 C   0  0  0  0  0  0  0  0  0  0  0  0
    0.3397   -3.2245   -1.5868 C   0  0  0  0  0  0  0  0  0  0  0  0
    0.6975    1.5112   -0.6734 C   0  0  0  0  0  0  0  0  0  0  0  0
    3.6506   -4.2461    1.4530 C   0  0  0  0  0  0  0  0  0  0  0  0
   -5.8357   -1.3615    0.2216 C   0  0  0  0  0  0  0  0  0  0  0  0
   -5.9426    0.9483   -0.7328 C   0  0  0  0  0  0  0  0  0  0  0  0
   -5.1973    0.6046    1.6303 C   0  0  0  0  0  0  0  0  0  0  0  0
    4.3613    0.5956   -0.4253 C   0  0  0  0  0  0  0  0  0  0  0  0
    3.4488    0.4854    1.7860 C   0  0  0  0  0  0  0  0  0  0  0  0
   -7.5856    0.2213    1.0038 C   0  0  0  0  0  0  0  0  0  0  0  0
   -1.1488   -3.4816   -1.7500 C   0  0  0  0  0  0  0  0  0  0  0  0
    0.9700    2.5937    0.1630 C   0  0  0  0  0  0  0  0  0  0  0  0
    0.2621    1.7317   -1.9801 C   0  0  0  0  0  0  0  0  0  0  0  0
    5.4815    1.2891   -0.0048 C   0  0  0  0  0  0  0  0  0  0  0  0
    4.5718    1.1862    2.2420 C   0  0  0  0  0  0  0  0  0  0  0  0
    5.5848    1.5781    1.3538 C   0  0  0  0  0  0  0  0  0  0  0  0
    0.8070    3.8967   -0.3073 C   0  0  0  0  0  0  0  0  0  0  0  0
    0.0991    3.0346   -2.4504 C   0  0  0  0  0  0  0  0  0  0  0  0
    0.3714    4.1172   -1.6140 C   0  0  0  0  0  0  0  0  0  0  0  0
    0.6468    0.1385    0.9121 H   0  0  0  0  0  0  0  0  0  0  0  0
   -0.1856   -0.8479   -1.8434 H   0  0  0  0  0  0  0  0  0  0  0  0
    1.1513   -3.2378    1.6229 H   0  0  0  0  0  0  0  0  0  0  0  0
    1.4990   -1.5939    2.0603 H   0  0  0  0  0  0  0  0  0  0  0  0
    2.9432   -3.1377   -1.7516 H   0  0  0  0  0  0  0  0  0  0  0  0
    4.0825   -2.5093   -0.5921 H   0  0  0  0  0  0  0  0  0  0  0  0
    3.0659   -3.0895    3.1735 H   0  0  0  0  0  0  0  0  0  0  0  0
    3.9872   -2.1938    1.9817 H   0  0  0  0  0  0  0  0  0  0  0  0
    2.2824   -4.9138   -0.0596 H   0  0  0  0  0  0  0  0  0  0  0  0
    3.9635   -4.9804   -0.5469 H   0  0  0  0  0  0  0  0  0  0  0  0
   -3.8681   -2.2056    0.3955 H   0  0  0  0  0  0  0  0  0  0  0  0
   -4.3645   -1.9380   -1.2595 H   0  0  0  0  0  0  0  0  0  0  0  0
   -4.4711    0.4393   -2.2383 H   0  0  0  0  0  0  0  0  0  0  0  0
   -4.0243    1.8145   -1.2477 H   0  0  0  0  0  0  0  0  0  0  0  0
   -3.2603    1.4612    1.1759 H   0  0  0  0  0  0  0  0  0  0  0  0
   -3.1976   -0.1400    1.8755 H   0  0  0  0  0  0  0  0  0  0  0  0
    0.7607   -2.8931   -2.5423 H   0  0  0  0  0  0  0  0  0  0  0  0
    0.7861   -4.1934   -1.3539 H   0  0  0  0  0  0  0  0  0  0  0  0
    3.2452   -5.0989    2.0110 H   0  0  0  0  0  0  0  0  0  0  0  0
    4.7418   -4.3188    1.5359 H   0  0  0  0  0  0  0  0  0  0  0  0
   -6.5097   -1.7546   -0.5507 H   0  0  0  0  0  0  0  0  0  0  0  0
   -5.9867   -1.9936    1.1066 H   0  0  0  0  0  0  0  0  0  0  0  0
   -6.1703    2.0071   -0.5555 H   0  0  0  0  0  0  0  0  0  0  0  0
   -6.6238    0.6250   -1.5305 H   0  0  0  0  0  0  0  0  0  0  0  0
   -5.3369    0.0307    2.5556 H   0  0  0  0  0  0  0  0  0  0  0  0
   -5.3975    1.6509    1.8939 H   0  0  0  0  0  0  0  0  0  0  0  0
   -2.0613    0.2648   -1.5700 H   0  0  0  0  0  0  0  0  0  0  0  0
    4.6200    0.5158   -2.5298 H   0  0  0  0  0  0  0  0  0  0  0  0
    2.6707    0.2173    2.4911 H   0  0  0  0  0  0  0  0  0  0  0  0
   -1.6224   -3.7650   -0.8044 H   0  0  0  0  0  0  0  0  0  0  0  0
   -1.6828   -2.6335   -2.1871 H   0  0  0  0  0  0  0  0  0  0  0  0
   -1.2946   -4.3214   -2.4396 H   0  0  0  0  0  0  0  0  0  0  0  0
    0.0608    0.9316   -2.6817 H   0  0  0  0  0  0  0  0  0  0  0  0
    6.2394    1.6073   -0.7131 H   0  0  0  0  0  0  0  0  0  0  0  0
    4.6431    1.4302    3.2996 H   0  0  0  0  0  0  0  0  0  0  0  0
   -0.2343    3.2069   -3.4696 H   0  0  0  0  0  0  0  0  0  0  0  0
   -8.8249    1.6054    1.5881 H   0  0  0  0  0  0  0  0  0  0  0  0
    0.2409    5.1269   -1.9949 H   0  0  0  0  0  0  0  0  0  0  0  0
  1 41  1  0  0  0  0
  2 42  1  0  0  0  0
  3 37  1  0  0  0  0
  4 19  2  0  0  0  0
  5 23  2  0  0  0  0
  6 35  1  0  0  0  0
  6 81  1  0  0  0  0
  7 35  2  0  0  0  0
  8 11  1  0  0  0  0
  8 14  1  0  0  0  0
  8 27  1  0  0  0  0
  9 17  1  0  0  0  0
  9 23  1  0  0  0  0
  9 71  1  0  0  0  0
 10 19  1  0  0  0  0
 10 33  1  0  0  0  0
 10 72  1  0  0  0  0
 11 12  1  0  0  0  0
 11 15  1  0  0  0  0
 11 16  1  0  0  0  0
 12 13  1  0  0  0  0
 12 18  1  0  0  0  0
 12 19  1  0  0  0  0
 13 14  1  0  0  0  0
 13 28  1  0  0  0  0
 13 45  1  0  0  0  0
 14 23  1  0  0  0  0
 14 46  1  0  0  0  0
 15 21  1  0  0  0  0
 15 47  1  0  0  0  0
 15 48  1  0  0  0  0
 16 22  1  0  0  0  0
 16 49  1  0  0  0  0
 16 50  1  0  0  0  0
 17 24  1  0  0  0  0
 17 25  1  0  0  0  0
 17 26  1  0  0  0  0
 18 33  2  0  0  0  0
 18 34  1  0  0  0  0
 20 30  1  0  0  0  0
 20 31  1  0  0  0  0
 20 32  1  0  0  0  0
 20 35  1  0  0  0  0
 21 29  1  0  0  0  0
 21 51  1  0  0  0  0
 21 52  1  0  0  0  0
 22 29  1  0  0  0  0
 22 53  1  0  0  0  0
 22 54  1  0  0  0  0
 24 30  1  0  0  0  0
 24 55  1  0  0  0  0
 24 56  1  0  0  0  0
 25 31  1  0  0  0  0
 25 57  1  0  0  0  0
 25 58  1  0  0  0  0
 26 32  1  0  0  0  0
 26 59  1  0  0  0  0
 26 60  1  0  0  0  0
 27 36  1  0  0  0  0
 27 61  1  0  0  0  0
 27 62  1  0  0  0  0
 28 37  2  0  0  0  0
 28 38  1  0  0  0  0
 29 63  1  0  0  0  0
 29 64  1  0  0  0  0
 30 65  1  0  0  0  0
 30 66  1  0  0  0  0
 31 67  1  0  0  0  0
 31 68  1  0  0  0  0
 32 69  1  0  0  0  0
 32 70  1  0  0  0  0
 33 39  1  0  0  0  0
 34 40  2  0  0  0  0
 34 73  1  0  0  0  0
 36 74  1  0  0  0  0
 36 75  1  0  0  0  0
 36 76  1  0  0  0  0
 37 42  1  0  0  0  0
 38 43  2  0  0  0  0
 38 77  1  0  0  0  0
 39 41  2  0  0  0  0
 39 78  1  0  0  0  0
 40 41  1  0  0  0  0
 40 79  1  0  0  0  0
 42 44  2  0  0  0  0
 43 44  1  0  0  0  0
 43 80  1  0  0  0  0
 44 82  1  0  0  0  0
M  END
> <PUBCHEM_COMPOUND_CID>
91972012

> <PUBCHEM_CONFORMER_RMSD>
1.2

> <PUBCHEM_CONFORMER_DIVERSEORDER>
1
6
10
7
5
8
9
3
2
4

> <PUBCHEM_MMFF94_PARTIAL_CHARGES>
41
1 -0.18
10 -0.55
11 0.27
12 0.2
13 0.14
14 0.33
17 0.3
18 -0.14
19 0.57
2 -0.18
20 0.06
23 0.57
27 0.27
28 -0.14
3 -0.19
33 0.12
34 -0.15
35 0.66
37 0.19
38 -0.15
39 -0.15
4 -0.57
40 -0.15
41 0.18
42 0.18
43 -0.15
44 -0.15
5 -0.57
6 -0.65
7 -0.57
71 0.37
72 0.37
73 0.15
77 0.15
78 0.15
79 0.15
8 -0.81
80 0.15
81 0.5
82 0.15
9 -0.73

> <PUBCHEM_EFFECTIVE_ROTOR_COUNT>
9

> <PUBCHEM_PHARMACOPHORE_FEATURES>
14
1 10 donor
1 4 acceptor
1 5 acceptor
1 6 acceptor
1 7 acceptor
1 8 cation
1 9 donor
3 6 7 35 anion
5 10 12 18 19 33 rings
5 8 11 12 13 14 rings
6 11 15 16 21 22 29 rings
6 18 33 34 39 40 41 rings
6 28 37 38 42 43 44 rings
8 17 20 24 25 26 30 31 32 rings

> <PUBCHEM_HEAVY_ATOM_COUNT>
44

> <PUBCHEM_ATOM_DEF_STEREO_COUNT>
3

> <PUBCHEM_ATOM_UDEF_STEREO_COUNT>
0

> <PUBCHEM_BOND_DEF_STEREO_COUNT>
0

> <PUBCHEM_BOND_UDEF_STEREO_COUNT>
0

> <PUBCHEM_ISOTOPIC_ATOM_COUNT>
0

> <PUBCHEM_COMPONENT_COUNT>
1

> <PUBCHEM_CACTVS_TAUTO_COUNT>
20

> <PUBCHEM_CONFORMER_ID>
057B61AC00000001

> <PUBCHEM_MMFF94_ENERGY>
148.5139

> <PUBCHEM_FEATURE_SELFOVERLAP>
71.209

> <PUBCHEM_SHAPE_FINGERPRINT>
10006869 2 18269541763672348180
10162869 55 18339357574715016415
10165383 225 18272370897796599504
10169797 241 18268146457436199326
10190108 129 18261390019367093770
10439779 11 18409445929519530155
12035758 1 18336253643697933972
12608794 3 17975105937473374256
13140716 1 18048311438128397444
13811026 1 18114171996033511501
13835254 42 18337392617506545413
14020679 6 17896031216612078306
14725015 67 18045781174385090763
14955137 171 18335707199477254884
15081414 286 18410292488869027637
15420108 30 18129647721058406054
15439362 3 17976830005833883300
1601671 61 18408887355963463332
16067689 134 17903365049929530380
17909252 39 18118685413814131026
20739085 24 18340495460752196375
20775438 99 8285612279493264720
21033648 29 17917139623757263114
22149856 69 18042423361206370097
24771293 8 18200587128718620116
25269216 80 15482377756434810453
3178227 256 18335140942088260121
3411729 13 18342454850861054130
3493558 16 17630609135990883672
394071 54 18201722868495511657
4093350 32 17203336597869713005
4144715 1 18187937119403811347
5104073 3 18264205812526254449
5109719 28 18195258921361300385
513532 50 18130798840844100670
57527358 35 15865174807823951908
70251023 43 18120381956034896130

> <PUBCHEM_SHAPE_MULTIPOLES>
863.54
15.51
5.47
2.2
29.09
0.69
0.36
2.88
-9.94
-6.41
0.31
-1.42
0.29
0.33

> <PUBCHEM_SHAPE_SELFOVERLAP>
1893.533

> <PUBCHEM_SHAPE_VOLUME>
473.9

> <PUBCHEM_COORDINATE_TYPE>
2
5
10

$$$$
