129264140
  -OEChem-09092405013D

 66 73  0     1  0  0  0  0  0999 V2000
   -6.4711    0.0380   -3.2064 Cl  0  0  0  0  0  0  0  0  0  0  0  0
   -2.2852    5.0098   -1.4786 Cl  0  0  0  0  0  0  0  0  0  0  0  0
   -1.5616    2.1453   -1.5862 F   0  0  0  0  0  0  0  0  0  0  0  0
   -2.4456   -0.3902    3.0347 O   0  0  0  0  0  0  0  0  0  0  0  0
    8.0872   -0.0760   -0.4144 O   0  0  0  0  0  0  0  0  0  0  0  0
    7.2290    1.1742   -2.1078 O   0  0  0  0  0  0  0  0  0  0  0  0
   -1.2070   -1.8678    0.6707 N   0  0  2  0  0  0  0  0  0  0  0  0
    1.6719   -0.1786    0.8949 N   0  0  0  0  0  0  0  0  0  0  0  0
   -4.1051   -0.1399    1.4001 N   0  0  0  0  0  0  0  0  0  0  0  0
    2.4664    0.8665    0.6654 N   0  0  0  0  0  0  0  0  0  0  0  0
   -0.0084   -1.6975    1.5007 C   0  0  2  0  0  0  0  0  0  0  0  0
   -1.9082   -0.5726    0.6121 C   0  0  1  0  0  0  0  0  0  0  0  0
    0.3300   -0.1764    1.4315 C   0  0  2  0  0  0  0  0  0  0  0  0
   -0.7327    0.4261    0.4992 C   0  0  2  0  0  0  0  0  0  0  0  0
   -1.9914   -3.0405    1.0273 C   0  0  0  0  0  0  0  0  0  0  0  0
   -1.4028   -4.2850    0.4460 C   0  0  0  0  0  0  0  0  0  0  0  0
    1.2207   -2.4772    0.9377 C   0  0  0  0  0  0  0  0  0  0  0  0
    2.1799   -1.4047    0.6284 C   0  0  0  0  0  0  0  0  0  0  0  0
   -2.9052   -0.4647   -0.5141 C   0  0  0  0  0  0  0  0  0  0  0  0
   -2.2672   -5.2418   -0.3278 C   0  0  0  0  0  0  0  0  0  0  0  0
   -1.2321   -4.4182   -1.0420 C   0  0  0  0  0  0  0  0  0  0  0  0
   -2.8028   -0.3615    1.8666 C   0  0  0  0  0  0  0  0  0  0  0  0
   -1.0735    1.8890    0.7160 C   0  0  0  0  0  0  0  0  0  0  0  0
   -4.1687   -0.2007    0.0126 C   0  0  0  0  0  0  0  0  0  0  0  0
    3.4307   -1.1584    0.1561 C   0  0  0  0  0  0  0  0  0  0  0  0
    3.5944    0.2926    0.1870 C   0  0  0  0  0  0  0  0  0  0  0  0
   -2.7310   -0.5819   -1.8822 C   0  0  0  0  0  0  0  0  0  0  0  0
   -1.4757    2.6814   -0.3593 C   0  0  0  0  0  0  0  0  0  0  0  0
   -0.9836    2.4408    1.9940 C   0  0  0  0  0  0  0  0  0  0  0  0
   -5.2878   -0.0395   -0.7797 C   0  0  0  0  0  0  0  0  0  0  0  0
    4.3581   -2.1011   -0.2653 C   0  0  0  0  0  0  0  0  0  0  0  0
    4.7995    0.8776   -0.2437 C   0  0  0  0  0  0  0  0  0  0  0  0
   -3.8488   -0.4222   -2.7068 C   0  0  0  0  0  0  0  0  0  0  0  0
   -5.1161   -0.1523   -2.1600 C   0  0  0  0  0  0  0  0  0  0  0  0
   -1.7879    4.0257   -0.1564 C   0  0  0  0  0  0  0  0  0  0  0  0
   -1.2958    3.7849    2.1967 C   0  0  0  0  0  0  0  0  0  0  0  0
    5.5488   -1.4777   -0.6883 C   0  0  0  0  0  0  0  0  0  0  0  0
    5.7608   -0.0616   -0.6789 C   0  0  0  0  0  0  0  0  0  0  0  0
   -1.6979    4.5775    1.1215 C   0  0  0  0  0  0  0  0  0  0  0  0
    5.0594    2.3438   -0.2489 C   0  0  0  0  0  0  0  0  0  0  0  0
    7.0565    0.4146   -1.1525 C   0  0  0  0  0  0  0  0  0  0  0  0
   -0.1941   -1.9765    2.5464 H   0  0  0  0  0  0  0  0  0  0  0  0
    0.3833    0.2273    2.4442 H   0  0  0  0  0  0  0  0  0  0  0  0
   -0.3233    0.3641   -0.5228 H   0  0  0  0  0  0  0  0  0  0  0  0
   -2.1017   -3.1510    2.1132 H   0  0  0  0  0  0  0  0  0  0  0  0
   -3.0116   -2.9436    0.6371 H   0  0  0  0  0  0  0  0  0  0  0  0
   -0.6369   -4.7157    1.0808 H   0  0  0  0  0  0  0  0  0  0  0  0
    0.9943   -3.0441    0.0312 H   0  0  0  0  0  0  0  0  0  0  0  0
    1.6147   -3.1669    1.6907 H   0  0  0  0  0  0  0  0  0  0  0  0
   -3.3080   -4.9936   -0.4943 H   0  0  0  0  0  0  0  0  0  0  0  0
   -2.0744   -6.3013   -0.2110 H   0  0  0  0  0  0  0  0  0  0  0  0
   -0.3463   -4.9259   -1.4037 H   0  0  0  0  0  0  0  0  0  0  0  0
   -1.5864   -3.6239   -1.6868 H   0  0  0  0  0  0  0  0  0  0  0  0
   -4.9102    0.0327    1.9906 H   0  0  0  0  0  0  0  0  0  0  0  0
   -1.7569   -0.7898   -2.3112 H   0  0  0  0  0  0  0  0  0  0  0  0
   -0.7064    1.8615    2.8666 H   0  0  0  0  0  0  0  0  0  0  0  0
   -6.2588    0.1652   -0.3415 H   0  0  0  0  0  0  0  0  0  0  0  0
    4.2128   -3.1720   -0.2791 H   0  0  0  0  0  0  0  0  0  0  0  0
   -3.7230   -0.5102   -3.7836 H   0  0  0  0  0  0  0  0  0  0  0  0
   -1.2329    4.2132    3.1928 H   0  0  0  0  0  0  0  0  0  0  0  0
    6.3495   -2.1258   -1.0476 H   0  0  0  0  0  0  0  0  0  0  0  0
   -1.9396    5.6229    1.2952 H   0  0  0  0  0  0  0  0  0  0  0  0
    5.1438    2.7146   -1.2752 H   0  0  0  0  0  0  0  0  0  0  0  0
    4.2471    2.8960    0.2349 H   0  0  0  0  0  0  0  0  0  0  0  0
    5.9791    2.5775    0.2972 H   0  0  0  0  0  0  0  0  0  0  0  0
    8.9549    0.2480   -0.7379 H   0  0  0  0  0  0  0  0  0  0  0  0
  1 34  1  0  0  0  0
  2 35  1  0  0  0  0
  3 28  1  0  0  0  0
  4 22  2  0  0  0  0
  5 41  1  0  0  0  0
  5 66  1  0  0  0  0
  6 41  2  0  0  0  0
  7 11  1  0  0  0  0
  7 12  1  0  0  0  0
  7 15  1  0  0  0  0
  8 10  1  0  0  0  0
  8 13  1  0  0  0  0
  8 18  1  0  0  0  0
  9 22  1  0  0  0  0
  9 24  1  0  0  0  0
  9 54  1  0  0  0  0
 10 26  2  0  0  0  0
 11 13  1  0  0  0  0
 11 17  1  0  0  0  0
 11 42  1  0  0  0  0
 12 14  1  0  0  0  0
 12 19  1  0  0  0  0
 12 22  1  0  0  0  0
 13 14  1  0  0  0  0
 13 43  1  0  0  0  0
 14 23  1  0  0  0  0
 14 44  1  0  0  0  0
 15 16  1  0  0  0  0
 15 45  1  0  0  0  0
 15 46  1  0  0  0  0
 16 20  1  0  0  0  0
 16 21  1  0  0  0  0
 16 47  1  0  0  0  0
 17 18  1  0  0  0  0
 17 48  1  0  0  0  0
 17 49  1  0  0  0  0
 18 25  2  0  0  0  0
 19 24  2  0  0  0  0
 19 27  1  0  0  0  0
 20 21  1  0  0  0  0
 20 50  1  0  0  0  0
 20 51  1  0  0  0  0
 21 52  1  0  0  0  0
 21 53  1  0  0  0  0
 23 28  2  0  0  0  0
 23 29  1  0  0  0  0
 24 30  1  0  0  0  0
 25 26  1  0  0  0  0
 25 31  1  0  0  0  0
 26 32  1  0  0  0  0
 27 33  2  0  0  0  0
 27 55  1  0  0  0  0
 28 35  1  0  0  0  0
 29 36  2  0  0  0  0
 29 56  1  0  0  0  0
 30 34  2  0  0  0  0
 30 57  1  0  0  0  0
 31 37  2  0  0  0  0
 31 58  1  0  0  0  0
 32 38  2  0  0  0  0
 32 40  1  0  0  0  0
 33 34  1  0  0  0  0
 33 59  1  0  0  0  0
 35 39  2  0  0  0  0
 36 39  1  0  0  0  0
 36 60  1  0  0  0  0
 37 38  1  0  0  0  0
 37 61  1  0  0  0  0
 38 41  1  0  0  0  0
 39 62  1  0  0  0  0
 40 63  1  0  0  0  0
 40 64  1  0  0  0  0
 40 65  1  0  0  0  0
M  END
> <PUBCHEM_COMPOUND_CID>
129264140

> <PUBCHEM_CONFORMER_RMSD>
1

> <PUBCHEM_CONFORMER_DIVERSEORDER>
1
4
3
2

> <PUBCHEM_MMFF94_PARTIAL_CHARGES>
55
1 -0.18
10 -0.71
11 0.27
12 0.47
13 0.26
14 0.14
15 0.37
16 -0.19
17 0.18
18 -0.33
19 -0.14
2 -0.18
20 -0.2
21 -0.2
22 0.57
23 -0.14
24 0.12
26 0.29
27 -0.15
28 0.19
29 -0.15
3 -0.19
30 -0.15
31 -0.15
32 -0.14
33 -0.15
34 0.18
35 0.18
36 -0.15
37 -0.15
38 0.09
39 -0.15
4 -0.57
40 0.14
41 0.63
47 0.1
5 -0.65
50 0.1
51 0.1
52 0.1
53 0.1
54 0.37
55 0.15
56 0.15
57 0.15
58 0.15
59 0.15
6 -0.57
60 0.15
61 0.15
62 0.15
66 0.5
7 -0.81
8 0.31
9 -0.55

> <PUBCHEM_EFFECTIVE_ROTOR_COUNT>
5.4

> <PUBCHEM_PHARMACOPHORE_FEATURES>
14
1 10 acceptor
1 4 acceptor
1 5 acceptor
1 6 acceptor
1 7 cation
1 9 donor
3 5 6 41 anion
5 7 11 12 13 14 rings
5 8 10 18 25 26 rings
5 8 11 13 17 18 rings
5 9 12 19 22 24 rings
6 19 24 27 30 33 34 rings
6 23 28 29 35 36 39 rings
6 25 26 31 32 37 38 rings

> <PUBCHEM_HEAVY_ATOM_COUNT>
41

> <PUBCHEM_ATOM_DEF_STEREO_COUNT>
4

> <PUBCHEM_ATOM_UDEF_STEREO_COUNT>
0

> <PUBCHEM_BOND_DEF_STEREO_COUNT>
0

> <PUBCHEM_BOND_UDEF_STEREO_COUNT>
0

> <PUBCHEM_ISOTOPIC_ATOM_COUNT>
0

> <PUBCHEM_COMPONENT_COUNT>
1

> <PUBCHEM_CACTVS_TAUTO_COUNT>
40

> <PUBCHEM_CONFORMER_ID>
07B46A0C00000001

> <PUBCHEM_MMFF94_ENERGY>
142.2727

> <PUBCHEM_FEATURE_SELFOVERLAP>
71.97

> <PUBCHEM_SHAPE_FINGERPRINT>
10032420 55 17988351581700040618
11445158 3 17974879412608390331
11513181 2 18124885564552446678
12107698 1 18201716246035853276
12788726 201 18270106933849392507
13149001 5 18123169450313575251
13383668 90 16917358017353037109
13726171 33 15793397555118339469
13782708 43 14189565369196295991
13911987 19 18335413557011623887
13947920 24 17821723918725935373
14068700 675 18341323461849130076
14118638 360 18338521842497855006
15064981 113 18270961229427332838
15082195 135 18048299068691228254
15219462 58 17245017868266592075
15276724 80 18339645525616802957
15324884 4 17840574126761879874
16114785 44 18199766755757950641
16994733 274 15936958619219186485
17492 54 18335966628593011759
18603816 31 16342869707754105158
19958102 18 18340493270788562350
20775438 99 17552596608335804023
21033648 144 18270963552808739192
23559900 14 18269274728818883144
283562 15 18339925896812578201
3027735 51 18197772203179192179
3380486 145 18191600854412066427
497634 4 16702305646151361624
57527358 35 15721053001071064939
6371009 1 18264194838895706938

> <PUBCHEM_SHAPE_MULTIPOLES>
802.69
13.76
5.84
2.38
25.77
0.83
-0.5
0.94
-11.59
-5.16
0.58
-3.29
0.68
-0.64

> <PUBCHEM_SHAPE_SELFOVERLAP>
1802.825

> <PUBCHEM_SHAPE_VOLUME>
431.5

> <PUBCHEM_COORDINATE_TYPE>
2
5
10

$$$$
