52938482
  -OEChem-09092405033D

 72 76  0     1  0  0  0  0  0999 V2000
   -4.6771   -4.1176   -2.2249 Cl  0  0  0  0  0  0  0  0  0  0  0  0
    1.4784   -4.5705    2.1152 Cl  0  0  0  0  0  0  0  0  0  0  0  0
    0.2488   -1.9084    2.4927 F   0  0  0  0  0  0  0  0  0  0  0  0
   -2.0670    0.5838    2.9099 O   0  0  0  0  0  0  0  0  0  0  0  0
    1.7310    2.7431    1.3879 O   0  0  0  0  0  0  0  0  0  0  0  0
    7.2816    0.2291   -0.6379 O   0  0  0  0  0  0  0  0  0  0  0  0
   -0.6471    2.4390    0.1807 N   0  0  0  0  0  0  0  0  0  0  0  0
   -3.1899   -1.0674    1.6870 N   0  0  0  0  0  0  0  0  0  0  0  0
    2.7774    1.5899   -0.3427 N   0  0  0  0  0  0  0  0  0  0  0  0
   -1.6279    0.2700    0.4844 C   0  0  2  0  0  0  0  0  0  0  0  0
   -1.8996    1.6988   -0.0586 C   0  0  1  0  0  0  0  0  0  0  0  0
   -0.0754    0.1966    0.6336 C   0  0  2  0  0  0  0  0  0  0  0  0
    0.4021    1.4505   -0.1093 C   0  0  2  0  0  0  0  0  0  0  0  0
   -3.0999    2.4410    0.5191 C   0  0  0  0  0  0  0  0  0  0  0  0
   -2.2881   -0.7758   -0.3876 C   0  0  0  0  0  0  0  0  0  0  0  0
   -2.2941   -0.0098    1.8658 C   0  0  0  0  0  0  0  0  0  0  0  0
   -3.6833    3.5716   -0.3665 C   0  0  0  0  0  0  0  0  0  0  0  0
    0.5830   -1.1255    0.2838 C   0  0  0  0  0  0  0  0  0  0  0  0
   -3.1862   -1.5205    0.3744 C   0  0  0  0  0  0  0  0  0  0  0  0
    1.6908    1.9999    0.4109 C   0  0  0  0  0  0  0  0  0  0  0  0
   -2.1265   -1.0551   -1.7348 C   0  0  0  0  0  0  0  0  0  0  0  0
   -4.0905    3.0395   -1.7505 C   0  0  0  0  0  0  0  0  0  0  0  0
   -4.9025    4.2278    0.3023 C   0  0  0  0  0  0  0  0  0  0  0  0
   -2.5928    4.6440   -0.5562 C   0  0  0  0  0  0  0  0  0  0  0  0
    4.1346    2.0005   -0.0618 C   0  0  0  0  0  0  0  0  0  0  0  0
    0.7111   -2.1221    1.2513 C   0  0  0  0  0  0  0  0  0  0  0  0
    1.0605   -1.3426   -1.0086 C   0  0  0  0  0  0  0  0  0  0  0  0
   -3.9373   -2.5533   -0.1518 C   0  0  0  0  0  0  0  0  0  0  0  0
    4.9580    2.1149   -1.3481 C   0  0  0  0  0  0  0  0  0  0  0  0
    4.7916    1.0594    0.9510 C   0  0  0  0  0  0  0  0  0  0  0  0
   -2.8739   -2.0970   -2.2927 C   0  0  0  0  0  0  0  0  0  0  0  0
   -3.7715   -2.8404   -1.5070 C   0  0  0  0  0  0  0  0  0  0  0  0
    5.3150    0.7533   -1.9511 C   0  0  0  0  0  0  0  0  0  0  0  0
    5.1357   -0.3060    0.3501 C   0  0  0  0  0  0  0  0  0  0  0  0
    5.9535   -0.1959   -0.9369 C   0  0  0  0  0  0  0  0  0  0  0  0
    1.3168   -3.3358    0.9264 C   0  0  0  0  0  0  0  0  0  0  0  0
    1.6663   -2.5562   -1.3335 C   0  0  0  0  0  0  0  0  0  0  0  0
    1.7946   -3.5529   -0.3660 C   0  0  0  0  0  0  0  0  0  0  0  0
   -2.0036    1.6339   -1.1452 H   0  0  0  0  0  0  0  0  0  0  0  0
    0.1787    0.3682    1.6922 H   0  0  0  0  0  0  0  0  0  0  0  0
    0.4525    1.3321   -1.1967 H   0  0  0  0  0  0  0  0  0  0  0  0
   -0.6041    2.6955    1.1683 H   0  0  0  0  0  0  0  0  0  0  0  0
   -2.8644    2.8401    1.5152 H   0  0  0  0  0  0  0  0  0  0  0  0
   -3.9145    1.7210    0.6758 H   0  0  0  0  0  0  0  0  0  0  0  0
   -3.7676   -1.4676    2.4168 H   0  0  0  0  0  0  0  0  0  0  0  0
   -1.4501   -0.4787   -2.3561 H   0  0  0  0  0  0  0  0  0  0  0  0
   -4.6401    3.8037   -2.3130 H   0  0  0  0  0  0  0  0  0  0  0  0
   -4.7461    2.1664   -1.6580 H   0  0  0  0  0  0  0  0  0  0  0  0
   -3.2345    2.7592   -2.3712 H   0  0  0  0  0  0  0  0  0  0  0  0
   -5.7057    3.4978    0.4517 H   0  0  0  0  0  0  0  0  0  0  0  0
   -4.6392    4.6394    1.2830 H   0  0  0  0  0  0  0  0  0  0  0  0
   -5.3036    5.0459   -0.3064 H   0  0  0  0  0  0  0  0  0  0  0  0
   -1.7760    4.3042   -1.2000 H   0  0  0  0  0  0  0  0  0  0  0  0
   -2.1748    4.9671    0.4038 H   0  0  0  0  0  0  0  0  0  0  0  0
   -3.0112    5.5344   -1.0415 H   0  0  0  0  0  0  0  0  0  0  0  0
    2.6299    0.9371   -1.1055 H   0  0  0  0  0  0  0  0  0  0  0  0
    4.0783    2.9977    0.3928 H   0  0  0  0  0  0  0  0  0  0  0  0
    0.9708   -0.6019   -1.7950 H   0  0  0  0  0  0  0  0  0  0  0  0
   -4.6266   -3.1159    0.4691 H   0  0  0  0  0  0  0  0  0  0  0  0
    5.8882    2.6528   -1.1245 H   0  0  0  0  0  0  0  0  0  0  0  0
    4.4199    2.7122   -2.0941 H   0  0  0  0  0  0  0  0  0  0  0  0
    4.1433    0.9170    1.8241 H   0  0  0  0  0  0  0  0  0  0  0  0
    5.7156    1.5240    1.3182 H   0  0  0  0  0  0  0  0  0  0  0  0
   -2.7526   -2.3221   -3.3499 H   0  0  0  0  0  0  0  0  0  0  0  0
    6.0001    0.9139   -2.7920 H   0  0  0  0  0  0  0  0  0  0  0  0
    4.4083    0.2891   -2.3570 H   0  0  0  0  0  0  0  0  0  0  0  0
    5.6871   -0.8880    1.0980 H   0  0  0  0  0  0  0  0  0  0  0  0
    4.2062   -0.8485    0.1401 H   0  0  0  0  0  0  0  0  0  0  0  0
    6.0409   -1.1887   -1.3933 H   0  0  0  0  0  0  0  0  0  0  0  0
    2.0361   -2.7263   -2.3405 H   0  0  0  0  0  0  0  0  0  0  0  0
    2.2685   -4.4936   -0.6342 H   0  0  0  0  0  0  0  0  0  0  0  0
    7.6623   -0.4126   -0.0144 H   0  0  0  0  0  0  0  0  0  0  0  0
  1 32  1  0  0  0  0
  2 36  1  0  0  0  0
  3 26  1  0  0  0  0
  4 16  2  0  0  0  0
  5 20  2  0  0  0  0
  6 35  1  0  0  0  0
  6 72  1  0  0  0  0
  7 11  1  0  0  0  0
  7 13  1  0  0  0  0
  7 42  1  0  0  0  0
  8 16  1  0  0  0  0
  8 19  1  0  0  0  0
  8 45  1  0  0  0  0
  9 20  1  0  0  0  0
  9 25  1  0  0  0  0
  9 56  1  0  0  0  0
 10 11  1  0  0  0  0
 10 12  1  0  0  0  0
 10 15  1  0  0  0  0
 10 16  1  0  0  0  0
 11 14  1  0  0  0  0
 11 39  1  0  0  0  0
 12 13  1  0  0  0  0
 12 18  1  0  0  0  0
 12 40  1  0  0  0  0
 13 20  1  0  0  0  0
 13 41  1  0  0  0  0
 14 17  1  0  0  0  0
 14 43  1  0  0  0  0
 14 44  1  0  0  0  0
 15 19  2  0  0  0  0
 15 21  1  0  0  0  0
 17 22  1  0  0  0  0
 17 23  1  0  0  0  0
 17 24  1  0  0  0  0
 18 26  2  0  0  0  0
 18 27  1  0  0  0  0
 19 28  1  0  0  0  0
 21 31  2  0  0  0  0
 21 46  1  0  0  0  0
 22 47  1  0  0  0  0
 22 48  1  0  0  0  0
 22 49  1  0  0  0  0
 23 50  1  0  0  0  0
 23 51  1  0  0  0  0
 23 52  1  0  0  0  0
 24 53  1  0  0  0  0
 24 54  1  0  0  0  0
 24 55  1  0  0  0  0
 25 29  1  0  0  0  0
 25 30  1  0  0  0  0
 25 57  1  0  0  0  0
 26 36  1  0  0  0  0
 27 37  2  0  0  0  0
 27 58  1  0  0  0  0
 28 32  2  0  0  0  0
 28 59  1  0  0  0  0
 29 33  1  0  0  0  0
 29 60  1  0  0  0  0
 29 61  1  0  0  0  0
 30 34  1  0  0  0  0
 30 62  1  0  0  0  0
 30 63  1  0  0  0  0
 31 32  1  0  0  0  0
 31 64  1  0  0  0  0
 33 35  1  0  0  0  0
 33 65  1  0  0  0  0
 33 66  1  0  0  0  0
 34 35  1  0  0  0  0
 34 67  1  0  0  0  0
 34 68  1  0  0  0  0
 35 69  1  0  0  0  0
 36 38  2  0  0  0  0
 37 38  1  0  0  0  0
 37 70  1  0  0  0  0
 38 71  1  0  0  0  0
M  END
> <PUBCHEM_COMPOUND_CID>
52938482

> <PUBCHEM_CONFORMER_RMSD>
1

> <PUBCHEM_CONFORMER_DIVERSEORDER>
1
25
29
22
18
28
23
8
14
20
31
17
15
4
6
27
24
30
12
9
13
10
21
3
11
16
26
5
19
7
2

> <PUBCHEM_MMFF94_PARTIAL_CHARGES>
39
1 -0.18
10 0.2
11 0.27
12 0.14
13 0.33
15 -0.14
16 0.57
18 -0.14
19 0.12
2 -0.18
20 0.57
21 -0.15
25 0.3
26 0.19
27 -0.15
28 -0.15
3 -0.19
31 -0.15
32 0.18
35 0.28
36 0.18
37 -0.15
38 -0.15
4 -0.57
42 0.36
45 0.37
46 0.15
5 -0.57
56 0.37
58 0.15
59 0.15
6 -0.68
64 0.15
7 -0.9
70 0.15
71 0.15
72 0.4
8 -0.55
9 -0.73

> <PUBCHEM_EFFECTIVE_ROTOR_COUNT>
8.2

> <PUBCHEM_PHARMACOPHORE_FEATURES>
14
1 4 acceptor
1 5 acceptor
1 6 acceptor
1 6 donor
1 7 cation
1 7 donor
1 8 donor
1 9 donor
4 17 22 23 24 hydrophobe
5 7 10 11 12 13 rings
5 8 10 15 16 19 rings
6 15 19 21 28 31 32 rings
6 18 26 27 36 37 38 rings
6 25 29 30 33 34 35 rings

> <PUBCHEM_HEAVY_ATOM_COUNT>
38

> <PUBCHEM_ATOM_DEF_STEREO_COUNT>
4

> <PUBCHEM_ATOM_UDEF_STEREO_COUNT>
0

> <PUBCHEM_BOND_DEF_STEREO_COUNT>
0

> <PUBCHEM_BOND_UDEF_STEREO_COUNT>
0

> <PUBCHEM_ISOTOPIC_ATOM_COUNT>
0

> <PUBCHEM_COMPONENT_COUNT>
1

> <PUBCHEM_CACTVS_TAUTO_COUNT>
4

> <PUBCHEM_CONFORMER_ID>
0327C6F200000001

> <PUBCHEM_MMFF94_ENERGY>
104.8926

> <PUBCHEM_FEATURE_SELFOVERLAP>
71.147

> <PUBCHEM_SHAPE_FINGERPRINT>
10032420 55 18410847798038602114
10190108 129 18263093240029525539
10930396 42 17403696397132613376
11007060 377 18266463281987147976
11227688 84 18120650486180948219
11513181 2 18341054013313708822
11578080 2 18116166466934102541
11991303 11 18334570197323403485
12422481 6 17416711204331980159
12788726 201 18193835066720036196
13911987 19 17897725606932947286
140371 6 17617089647847288569
14725015 67 18267579285698393090
15439362 3 17829046516207649628
15927050 60 18339358548686298125
17349148 13 18336837510505505846
17980427 26 17098326511799169017
22121540 332 16012676362415978989
22393880 68 18343014493568104300
23559900 14 17910669869907050602
283562 15 18266167521390119361
3027735 51 18410568530838397505
3298306 158 18338521829033224168
44062 13 18342177760914239764
508706 21 18337407010263123222
5265222 85 18263099815720109068
563151 248 17415033349799413051
6036956 94 17899712442210212244
6669772 16 18043534898099425089
70251023 43 18053093210340802521

> <PUBCHEM_SHAPE_MULTIPOLES>
745.94
11.38
6.23
2.15
14.6
0.06
-0.33
-4.72
5.23
-6.98
0.44
-0.83
1.54
-2.38

> <PUBCHEM_SHAPE_SELFOVERLAP>
1596.068

> <PUBCHEM_SHAPE_VOLUME>
419.2

> <PUBCHEM_COORDINATE_TYPE>
2
5
10

$$$$
