73297272
  -OEChem-09092404093D

 76 81  0     1  0  0  0  0  0999 V2000
   -5.2638   -2.9093    3.5768 Cl  0  0  0  0  0  0  0  0  0  0  0  0
    0.4308   -5.2969    0.7179 Cl  0  0  0  0  0  0  0  0  0  0  0  0
   -0.1936   -2.4254    1.2701 F   0  0  0  0  0  0  0  0  0  0  0  0
   -2.6494   -0.3386   -2.8802 O   0  0  0  0  0  0  0  0  0  0  0  0
    1.4086    2.5493   -0.6552 O   0  0  0  0  0  0  0  0  0  0  0  0
    5.1686    0.8787    1.4113 O   0  0  0  0  0  0  0  0  0  0  0  0
    7.5353    1.3984    2.1922 O   0  0  0  0  0  0  0  0  0  0  0  0
   -0.9499    1.8339   -1.6039 N   0  0  0  0  0  0  0  0  0  0  0  0
   -3.8591   -1.3082   -1.1352 N   0  0  0  0  0  0  0  0  0  0  0  0
    2.3796    0.4595   -0.9863 N   0  0  0  0  0  0  0  0  0  0  0  0
    0.4247   -4.4015   -1.7125 N   0  0  0  0  0  0  0  0  0  0  0  0
    8.5289   -0.2592    0.9435 N   0  0  0  0  0  0  0  0  0  0  0  0
   -1.9562    1.6083   -0.5439 C   0  0  0  0  0  0  0  0  0  0  0  0
   -1.9867    0.0393   -0.4965 C   0  0  1  0  0  0  0  0  0  0  0  0
   -0.4847   -0.3243   -0.6296 C   0  0  2  0  0  0  0  0  0  0  0  0
   -3.3011    2.2498   -0.9663 C   0  0  0  0  0  0  0  0  0  0  0  0
   -1.4953    2.2864    0.7780 C   0  0  0  0  0  0  0  0  0  0  0  0
    0.0736    0.7824   -1.5477 C   0  0  2  0  0  0  0  0  0  0  0  0
   -2.7788    4.4510    0.2667 C   0  0  0  0  0  0  0  0  0  0  0  0
   -3.2621    3.7818   -1.0348 C   0  0  0  0  0  0  0  0  0  0  0  0
   -1.4463    3.8181    0.7164 C   0  0  0  0  0  0  0  0  0  0  0  0
   -2.6767   -0.6071    0.6874 C   0  0  0  0  0  0  0  0  0  0  0  0
   -2.8363   -0.5379   -1.6886 C   0  0  0  0  0  0  0  0  0  0  0  0
   -0.1644   -1.7610   -1.0091 C   0  0  0  0  0  0  0  0  0  0  0  0
   -3.7665   -1.3576    0.2474 C   0  0  0  0  0  0  0  0  0  0  0  0
    1.3410    1.3748   -1.0078 C   0  0  0  0  0  0  0  0  0  0  0  0
   -2.5573    5.9532    0.0074 C   0  0  0  0  0  0  0  0  0  0  0  0
   -3.8460    4.3154    1.3709 C   0  0  0  0  0  0  0  0  0  0  0  0
   -2.3589   -0.6050    2.0365 C   0  0  0  0  0  0  0  0  0  0  0  0
   -0.0374   -2.7341   -0.0240 C   0  0  0  0  0  0  0  0  0  0  0  0
    0.0029   -2.1066   -2.3454 C   0  0  0  0  0  0  0  0  0  0  0  0
   -4.5879   -2.0713    1.1002 C   0  0  0  0  0  0  0  0  0  0  0  0
   -3.1729   -1.3180    2.9240 C   0  0  0  0  0  0  0  0  0  0  0  0
    3.7080    0.7852   -0.5328 C   0  0  2  0  0  0  0  0  0  0  0  0
   -4.2834   -2.0402    2.4596 C   0  0  0  0  0  0  0  0  0  0  0  0
    0.2552   -4.0279   -0.4243 C   0  0  0  0  0  0  0  0  0  0  0  0
    0.2938   -3.4285   -2.6420 C   0  0  0  0  0  0  0  0  0  0  0  0
    4.7637   -0.0236   -1.2892 C   0  0  0  0  0  0  0  0  0  0  0  0
    3.8466    0.5654    0.9728 C   0  0  0  0  0  0  0  0  0  0  0  0
    6.1524    0.2350   -0.7142 C   0  0  0  0  0  0  0  0  0  0  0  0
    6.1483    0.0462    0.7984 C   0  0  1  0  0  0  0  0  0  0  0  0
    7.4530    0.4699    1.3920 C   0  0  0  0  0  0  0  0  0  0  0  0
   -0.0196   -0.1814    0.3582 H   0  0  0  0  0  0  0  0  0  0  0  0
   -4.0892    1.9372   -0.2705 H   0  0  0  0  0  0  0  0  0  0  0  0
   -3.6160    1.8958   -1.9548 H   0  0  0  0  0  0  0  0  0  0  0  0
   -0.5143    1.9218    1.1005 H   0  0  0  0  0  0  0  0  0  0  0  0
   -2.1883    2.0208    1.5825 H   0  0  0  0  0  0  0  0  0  0  0  0
    0.2739    0.4810   -2.5772 H   0  0  0  0  0  0  0  0  0  0  0  0
   -0.5551    2.7701   -1.5904 H   0  0  0  0  0  0  0  0  0  0  0  0
   -2.6082    4.0786   -1.8654 H   0  0  0  0  0  0  0  0  0  0  0  0
   -4.2630    4.1493   -1.2962 H   0  0  0  0  0  0  0  0  0  0  0  0
   -1.1673    4.2011    1.7066 H   0  0  0  0  0  0  0  0  0  0  0  0
   -0.6419    4.1322    0.0414 H   0  0  0  0  0  0  0  0  0  0  0  0
   -4.5675   -1.7988   -1.6680 H   0  0  0  0  0  0  0  0  0  0  0  0
   -2.2107    6.4640    0.9129 H   0  0  0  0  0  0  0  0  0  0  0  0
   -1.8058    6.1156   -0.7735 H   0  0  0  0  0  0  0  0  0  0  0  0
   -3.4839    6.4396   -0.3178 H   0  0  0  0  0  0  0  0  0  0  0  0
   -3.5151    4.7988    2.2972 H   0  0  0  0  0  0  0  0  0  0  0  0
   -4.0737    3.2727    1.6100 H   0  0  0  0  0  0  0  0  0  0  0  0
   -4.7855    4.7920    1.0679 H   0  0  0  0  0  0  0  0  0  0  0  0
   -1.4926   -0.0732    2.4143 H   0  0  0  0  0  0  0  0  0  0  0  0
   -0.1086   -1.4106   -3.1659 H   0  0  0  0  0  0  0  0  0  0  0  0
   -5.4279   -2.6423    0.7185 H   0  0  0  0  0  0  0  0  0  0  0  0
    2.2036   -0.4979   -1.2738 H   0  0  0  0  0  0  0  0  0  0  0  0
   -2.9267   -1.3091    3.9834 H   0  0  0  0  0  0  0  0  0  0  0  0
    3.8911    1.8482   -0.7390 H   0  0  0  0  0  0  0  0  0  0  0  0
    0.4267   -3.7514   -3.6693 H   0  0  0  0  0  0  0  0  0  0  0  0
    4.7452    0.2291   -2.3561 H   0  0  0  0  0  0  0  0  0  0  0  0
    4.5367   -1.0956   -1.2183 H   0  0  0  0  0  0  0  0  0  0  0  0
    3.1545    1.2168    1.5177 H   0  0  0  0  0  0  0  0  0  0  0  0
    3.6027   -0.4666    1.2554 H   0  0  0  0  0  0  0  0  0  0  0  0
    6.8766   -0.4268   -1.2015 H   0  0  0  0  0  0  0  0  0  0  0  0
    6.4451    1.2646   -0.9591 H   0  0  0  0  0  0  0  0  0  0  0  0
    5.9609   -0.9996    1.0724 H   0  0  0  0  0  0  0  0  0  0  0  0
    8.4335   -1.0389    0.3011 H   0  0  0  0  0  0  0  0  0  0  0  0
    9.4675   -0.0549    1.2703 H   0  0  0  0  0  0  0  0  0  0  0  0
  1 35  1  0  0  0  0
  2 36  1  0  0  0  0
  3 30  1  0  0  0  0
  4 23  2  0  0  0  0
  5 26  2  0  0  0  0
  6 39  1  0  0  0  0
  6 41  1  0  0  0  0
  7 42  2  0  0  0  0
  8 13  1  0  0  0  0
  8 18  1  0  0  0  0
  8 49  1  0  0  0  0
  9 23  1  0  0  0  0
  9 25  1  0  0  0  0
  9 54  1  0  0  0  0
 10 26  1  0  0  0  0
 10 34  1  0  0  0  0
 10 64  1  0  0  0  0
 11 36  2  0  0  0  0
 11 37  1  0  0  0  0
 12 42  1  0  0  0  0
 12 75  1  0  0  0  0
 12 76  1  0  0  0  0
 13 14  1  0  0  0  0
 13 16  1  0  0  0  0
 13 17  1  0  0  0  0
 14 15  1  0  0  0  0
 14 22  1  0  0  0  0
 14 23  1  0  0  0  0
 15 18  1  0  0  0  0
 15 24  1  0  0  0  0
 15 43  1  0  0  0  0
 16 20  1  0  0  0  0
 16 44  1  0  0  0  0
 16 45  1  0  0  0  0
 17 21  1  0  0  0  0
 17 46  1  0  0  0  0
 17 47  1  0  0  0  0
 18 26  1  0  0  0  0
 18 48  1  0  0  0  0
 19 20  1  0  0  0  0
 19 21  1  0  0  0  0
 19 27  1  0  0  0  0
 19 28  1  0  0  0  0
 20 50  1  0  0  0  0
 20 51  1  0  0  0  0
 21 52  1  0  0  0  0
 21 53  1  0  0  0  0
 22 25  2  0  0  0  0
 22 29  1  0  0  0  0
 24 30  2  0  0  0  0
 24 31  1  0  0  0  0
 25 32  1  0  0  0  0
 27 55  1  0  0  0  0
 27 56  1  0  0  0  0
 27 57  1  0  0  0  0
 28 58  1  0  0  0  0
 28 59  1  0  0  0  0
 28 60  1  0  0  0  0
 29 33  2  0  0  0  0
 29 61  1  0  0  0  0
 30 36  1  0  0  0  0
 31 37  2  0  0  0  0
 31 62  1  0  0  0  0
 32 35  2  0  0  0  0
 32 63  1  0  0  0  0
 33 35  1  0  0  0  0
 33 65  1  0  0  0  0
 34 38  1  0  0  0  0
 34 39  1  0  0  0  0
 34 66  1  0  0  0  0
 37 67  1  0  0  0  0
 38 40  1  0  0  0  0
 38 68  1  0  0  0  0
 38 69  1  0  0  0  0
 39 70  1  0  0  0  0
 39 71  1  0  0  0  0
 40 41  1  0  0  0  0
 40 72  1  0  0  0  0
 40 73  1  0  0  0  0
 41 42  1  0  0  0  0
 41 74  1  0  0  0  0
M  END
> <PUBCHEM_COMPOUND_CID>
73297272

> <PUBCHEM_CONFORMER_RMSD>
1

> <PUBCHEM_CONFORMER_DIVERSEORDER>
1
47
34
29
21
13
44
41
5
23
18
27
49
36
30
37
3
14
39
45
33
43
46
4
48
22
6
2
24
40
19
20
9
11
26
12
10
17
8
38
31
15
16
28
32
7
25
35
42

> <PUBCHEM_MMFF94_PARTIAL_CHARGES>
43
1 -0.18
10 -0.73
11 -0.62
12 -0.8
13 0.27
14 0.2
15 0.14
18 0.33
2 -0.18
22 -0.14
23 0.57
24 -0.14
25 0.12
26 0.57
29 -0.15
3 -0.19
30 0.19
31 -0.15
32 -0.15
33 -0.15
34 0.3
35 0.18
36 0.49
37 0.16
39 0.28
4 -0.57
41 0.34
42 0.57
49 0.36
5 -0.57
54 0.37
6 -0.56
61 0.15
62 0.15
63 0.15
64 0.37
65 0.15
67 0.15
7 -0.57
75 0.37
76 0.37
8 -0.9
9 -0.55

> <PUBCHEM_EFFECTIVE_ROTOR_COUNT>
8

> <PUBCHEM_PHARMACOPHORE_FEATURES>
17
1 10 donor
1 11 acceptor
1 12 donor
1 4 acceptor
1 5 acceptor
1 6 acceptor
1 7 acceptor
1 8 cation
1 8 donor
1 9 donor
3 19 27 28 hydrophobe
5 8 13 14 15 18 rings
5 9 14 22 23 25 rings
6 11 24 30 31 36 37 rings
6 13 16 17 19 20 21 rings
6 22 25 29 32 33 35 rings
6 6 34 38 39 40 41 rings

> <PUBCHEM_HEAVY_ATOM_COUNT>
42

> <PUBCHEM_ATOM_DEF_STEREO_COUNT>
5

> <PUBCHEM_ATOM_UDEF_STEREO_COUNT>
0

> <PUBCHEM_BOND_DEF_STEREO_COUNT>
0

> <PUBCHEM_BOND_UDEF_STEREO_COUNT>
0

> <PUBCHEM_ISOTOPIC_ATOM_COUNT>
0

> <PUBCHEM_COMPONENT_COUNT>
1

> <PUBCHEM_CACTVS_TAUTO_COUNT>
12

> <PUBCHEM_CONFORMER_ID>
045E6D7800000001

> <PUBCHEM_MMFF94_ENERGY>
122.4221

> <PUBCHEM_FEATURE_SELFOVERLAP>
86.399

> <PUBCHEM_SHAPE_FINGERPRINT>
10305334 12 17677605376396322026
10930396 42 18124289830997448184
11007060 377 18059275665771491330
11578080 2 17914629267429121849
12608794 3 17986961927793606401
12788726 201 18190477115032347100
12988421 55 17346601880848345646
131258 38 16523578094063650226
13140716 1 18050566545605061998
14068700 675 17531535411254520921
14400156 147 16015549777231045810
14725015 67 18340760537448812305
15439362 3 17761770663863070864
15444296 121 18334860511743527460
16114785 44 18130210615076713684
16728300 4 17531239599783335410
19958102 18 8141268462182544696
21033648 29 18202004296628579860
283562 15 18341038666825107461
3383291 50 18336258046451024906
3493558 16 15545967705555986571
376196 1 17550106961860572221
469060 322 18201163255995052863
484985 159 17458341944485671625
497634 4 15719380759939472942
5080951 261 18044343151337294256
57527358 35 14978582553961554063
57527452 28 17916007131687986479
6669772 16 18047194038700721069
9896288 288 18408886200912646954
9981440 41 18270393872056496397

> <PUBCHEM_SHAPE_MULTIPOLES>
812.42
13.25
6.79
2.75
35.79
2.46
0.72
3.5
11
-8.63
0.34
-1.77
-2.22
3.15

> <PUBCHEM_SHAPE_SELFOVERLAP>
1761.279

> <PUBCHEM_SHAPE_VOLUME>
449.4

> <PUBCHEM_COORDINATE_TYPE>
2
5
10

$$$$
